  Page 1                                    Fri Oct 13 13:50:29 2017

  ******************************************************************
  *                           E P A N E T                          *
  *                   Hydraulic and Water Quality                  *
  *                   Analysis for Pipe Networks                   *
  *                         Version 2.00.12                        *
  ******************************************************************
  
  Analysis begun Fri Oct 13 13:50:29 2017

   
  Hydraulic Status:
  -----------------------------------------------------------------------
     0:00:00: Balanced after 5 trials
     0:00:00: Tank 26 is filling at 56.70 ft
   
     1:00:00: Balanced after 3 trials
   
     2:00:00: Balanced after 2 trials
   
     3:00:00: Balanced after 1 trials
   
     4:00:00: Balanced after 2 trials
   
     5:00:00: Balanced after 3 trials
   
     6:00:00: Balanced after 3 trials
   
     7:00:00: Balanced after 4 trials
     7:00:00: Tank 26 is emptying at 64.78 ft
   
     8:00:00: Balanced after 1 trials
   
     9:00:00: Balanced after 2 trials
   
    10:00:00: Balanced after 2 trials
   
    11:00:00: Balanced after 2 trials
   
    12:00:00: Balanced after 4 trials
    12:00:00: Tank 26 is filling at 56.72 ft
   
    13:00:00: Balanced after 3 trials
   
    14:00:00: Balanced after 3 trials
   
    15:00:00: Balanced after 3 trials
   
    16:00:00: Balanced after 2 trials
   
    17:00:00: Balanced after 4 trials
    17:00:00: Tank 26 is emptying at 65.13 ft
   
    18:00:00: Balanced after 3 trials
   
    19:00:00: Balanced after 2 trials
   
    20:00:00: Balanced after 2 trials
   
    21:00:00: Balanced after 2 trials
   
    22:00:00: Balanced after 2 trials
   
    23:00:00: Balanced after 2 trials
   
    24:00:00: Balanced after 4 trials
    24:00:00: Tank 26 is filling at 56.20 ft
   
    25:00:00: Balanced after 2 trials
   
    26:00:00: Balanced after 2 trials
   
    27:00:00: Balanced after 3 trials
   
    28:00:00: Balanced after 2 trials
   
    29:00:00: Balanced after 3 trials
   
    30:00:00: Balanced after 2 trials
   
    31:00:00: Balanced after 5 trials
    31:00:00: Tank 26 is emptying at 64.88 ft
   
    32:00:00: Balanced after 4 trials
   
    33:00:00: Balanced after 2 trials
   
    34:00:00: Balanced after 2 trials
   
    35:00:00: Balanced after 2 trials
   
    36:00:00: Balanced after 2 trials
   
    37:00:00: Balanced after 4 trials
    37:00:00: Tank 26 is filling at 56.52 ft
   
    38:00:00: Balanced after 3 trials
   
    39:00:00: Balanced after 3 trials
   
    40:00:00: Balanced after 2 trials
   
    41:00:00: Balanced after 2 trials
   
    42:00:00: Balanced after 3 trials
    42:00:00: Tank 26 is emptying at 64.83 ft
   
    43:00:00: Balanced after 3 trials
   
    44:00:00: Balanced after 2 trials
   
    45:00:00: Balanced after 2 trials
   
    46:00:00: Balanced after 2 trials
   
    47:00:00: Balanced after 2 trials
   
    48:00:00: Balanced after 2 trials
   
    49:00:00: Balanced after 4 trials
    49:00:00: Tank 26 is filling at 56.48 ft
   
    50:00:00: Balanced after 3 trials
   
    51:00:00: Balanced after 3 trials
   
    52:00:00: Balanced after 2 trials
   
    53:00:00: Balanced after 2 trials
   
    54:00:00: Balanced after 1 trials
   
    55:00:00: Balanced after 3 trials
   
   
  Node Results at 0:00:00 hrs:
  --------------------------------------------------------
                     Demand      Head  Pressure  Fluoride
  Node                  gpm        ft       psi      mg/L
  --------------------------------------------------------
  1                 -666.62    309.88    112.61      1.00
  2                   10.08    305.22     88.92      1.00
  3                   17.64    304.59    105.98      1.00
  4                   10.08    304.17    105.80      1.00
  5                   10.08    304.13     88.45      1.00
  6                    6.30    302.10     76.74      1.00
  7                    5.04    297.62     59.63      1.00
  8                   11.34    297.61     81.29      1.00
  9                   17.64    297.00     50.69      1.00
  10                   6.30    297.61     72.63      1.00
  11                  43.82    295.97     48.08      1.00
  12                  20.16    293.57     36.21      1.00
  13                   2.52    292.86     35.90      1.00
  14                   2.52    292.54     40.10      1.00
  15                   2.52    292.35     44.35      1.00
  16                  25.20    292.38     61.69      1.00
  17                  25.20    292.33     48.67      1.00
  18                  25.20    292.33     83.34      1.00
  19                   6.30    292.34     61.67      1.00
  20                  23.94    292.51     53.08      1.00
  21                  20.16    292.49     61.74      1.00
  22                  12.60    292.49     40.07      1.00
  23                  10.08    291.91     26.83      1.00
  24                  13.86    292.22     44.29      1.00
  25                   7.56    291.77     26.76      1.00
  27                  10.08    291.75     70.09      1.00
  28                   0.00    291.74     78.75      1.00
  29                   8.82    291.74     78.75      1.00
  30                   3.78    291.74     70.08      1.00
  31                  21.42    291.76     44.09      1.00
  32                  21.42    292.33     79.00      1.00
  33                   1.89    292.49     48.74      1.00
  34                   1.89    292.49     44.41      1.00
  35                   0.00    291.74     78.75      1.00
  36                   1.26    291.74     78.75      1.00
  26                 259.92    291.70     24.57      1.00  Tank
   
   
  Link Results at 0:00:00 hrs:
  ----------------------------------------------
                       Flow  Velocity  Headloss
  Link                  gpm       fps   /1000ft
  ----------------------------------------------
  1                  666.62      1.89      1.94
  2                  548.36      1.56      1.35
  3                  108.18      0.69      0.48
  4                   90.54      0.58      0.35
  5                   80.46      0.23      0.04
  6                  618.74      1.76      1.69
  7                  612.44      1.74      1.66
  8                   17.64      0.05      0.00
  9                  589.76      1.67      1.55
  10                   6.30      0.04      0.00
  11                 572.12      1.62      1.46
  12                 528.30      1.50      1.26
  13                 508.14      1.44      1.18
  14                 418.27      1.19      0.82
  15                 355.27      1.01      0.61
  16                  87.35      0.56      0.33
  17                  15.97      0.10      0.01
  18                  38.76      0.25      0.07
  19                  29.52      0.08      0.01
  20                   4.32      0.01      0.00
  21                  23.40      0.15      0.03
  22                  60.48      0.17      0.02
  23                  18.34      0.12      0.02
  24                  -1.82      0.01      0.00
  25                  18.20      0.12      0.02
  26                 322.92      0.92      0.51
  27                 336.78      0.96      0.55
  28                 312.84      0.89      0.48
  29                 259.92      0.74      0.34
  30                  45.36      0.13      0.01
  31                  23.94      0.15      0.03
  32                  13.86      0.09      0.01
  34                   2.57      0.02      0.00
  35                   3.78      0.02      0.00
  36                   1.89      0.01      0.00
  37                 -17.10      0.11      0.02
  38                   2.47      0.02      0.00
  39                   3.78      0.02      0.00
  40                   1.31      0.01      0.00
  41                   1.26      0.01      0.00
   
   
  Node Results at 1:00:00 hrs:
  --------------------------------------------------------
                     Demand      Head  Pressure  Fluoride
  Node                  gpm        ft       psi      mg/L
  --------------------------------------------------------
  1                 -666.62    311.83    113.45      0.98
  2                    8.32    307.16     89.76      0.98
  3                   14.56    306.54    106.83      0.98
  4                    8.32    306.11    106.64      1.00
  5                    8.32    306.07     89.29      0.98
  6                    5.20    303.98     77.55      0.98
  7                    4.16    299.37     60.39      1.00
  8                    9.36    299.37     82.05      1.00
  9                   14.56    298.72     51.44      1.00
  10                   5.20    299.36     73.39      1.00
  11                  36.17    297.64     48.81      1.00
  12                  16.64    295.03     36.84      1.00
  13                   2.08    294.25     36.51      1.00
  14                   2.08    293.89     40.68      1.00
  15                   2.08    293.67     44.92      1.00
  16                  20.80    293.73     62.28      1.00
  17                  20.80    293.67     49.25      1.00
  18                  20.80    293.67     83.92      1.00
  19                   5.20    293.68     62.26      1.00
  20                  19.76    293.87     53.67      1.00
  21                  16.64    293.85     62.33      1.00
  22                  10.40    293.85     40.67      1.00
  23                   8.32    293.07     27.33      1.00
  24                  11.44    293.49     44.84      1.00
  25                   6.24    292.87     27.24      1.00
  27                   8.32    292.85     70.56      1.00
  28                   0.00    292.85     79.23      1.00
  29                   7.28    292.85     79.23      1.00
  30                   3.12    292.85     70.56      1.00
  31                  17.68    292.86     44.57      1.00
  32                  17.68    293.67     79.58      1.00
  33                   1.56    293.85     49.33      1.00
  34                   1.56    293.85     45.00      1.00
  35                   0.00    292.85     79.23      1.00
  36                   1.04    292.85     79.23      1.00
  26                 330.93    292.76     25.03      1.00  Tank
   
   
  Link Results at 1:00:00 hrs:
  ----------------------------------------------
                       Flow  Velocity  Headloss
  Link                  gpm       fps   /1000ft
  ----------------------------------------------
  1                  666.62      1.89      1.94
  2                  551.15      1.56      1.37
  3                  107.16      0.68      0.47
  4                   92.60      0.59      0.36
  5                   84.28      0.24      0.04
  6                  627.10      1.78      1.74
  7                  621.90      1.76      1.71
  8                   14.56      0.04      0.00
  9                  603.18      1.71      1.62
  10                   5.20      0.03      0.00
  11                 588.62      1.67      1.54
  12                 552.45      1.57      1.37
  13                 535.81      1.52      1.30
  14                 442.98      1.26      0.91
  15                 390.98      1.11      0.72
  16                  90.76      0.58      0.35
  17                  -5.48      0.03      0.00
  18                  44.44      0.28      0.09
  19                  18.17      0.05      0.00
  20                  -2.63      0.01      0.00
  21                  25.51      0.16      0.03
  22                  49.92      0.14      0.02
  23                  15.14      0.10      0.01
  24                  -1.50      0.01      0.00
  25                  15.02      0.10      0.01
  26                 382.93      1.09      0.70
  27                 394.37      1.12      0.74
  28                 374.61      1.06      0.67
  29                 330.93      0.94      0.53
  30                  37.44      0.11      0.01
  31                  19.76      0.13      0.02
  32                  11.44      0.07      0.01
  34                   1.79      0.01      0.00
  35                   3.12      0.02      0.00
  36                   1.56      0.01      0.00
  37                 -20.31      0.13      0.02
  38                   2.37      0.02      0.00
  39                   3.12      0.02      0.00
  40                   0.75      0.00      0.00
  41                   1.04      0.01      0.00
   
   
  Node Results at 2:00:00 hrs:
  --------------------------------------------------------
                     Demand      Head  Pressure  Fluoride
  Node                  gpm        ft       psi      mg/L
  --------------------------------------------------------
  1                 -666.62    313.47    114.16      1.02
  2                    7.76    308.80     90.47      1.02
  3                   13.58    308.19    107.54      1.02
  4                    7.76    307.75    107.35      0.98
  5                    7.76    307.71     90.00      1.02
  6                    4.85    305.61     78.26      1.02
  7                    3.88    300.95     61.07      0.98
  8                    8.73    300.95     82.74      1.00
  9                   13.58    300.29     52.12      0.98
  10                   4.85    300.95     74.07      1.00
  11                  33.74    299.20     49.48      0.98
  12                  15.52    296.52     37.49      0.98
  13                   1.94    295.72     37.14      0.98
  14                   1.94    295.34     41.31      0.98
  15                   1.94    295.11     45.54      0.99
  16                  19.40    295.18     62.91      1.00
  17                  19.40    295.12     49.88      1.00
  18                  19.40    295.12     84.55      1.00
  19                   4.85    295.14     62.89      1.00
  20                  18.43    295.33     54.30      1.00
  21                  15.52    295.31     62.96      1.00
  22                   9.70    295.31     41.30      1.00
  23                   7.76    294.45     27.93      1.00
  24                  10.67    294.91     45.46      1.00
  25                   5.82    294.23     27.83      1.00
  27                   7.76    294.22     71.16      1.00
  28                   0.00    294.22     79.82      1.00
  29                   6.79    294.22     79.82      1.00
  30                   2.91    294.22     71.16      1.00
  31                  16.49    294.23     45.16      1.00
  32                  16.49    295.12     80.21      1.00
  33                   1.45    295.31     49.96      1.00
  34                   1.45    295.31     45.63      1.00
  35                   0.00    294.22     79.82      1.00
  36                   0.97    294.22     79.82      1.00
  26                 353.53    294.11     25.61      1.00  Tank
   
   
  Link Results at 2:00:00 hrs:
  ----------------------------------------------
                       Flow  Velocity  Headloss
  Link                  gpm       fps   /1000ft
  ----------------------------------------------
  1                  666.62      1.89      1.94
  2                  552.04      1.57      1.37
  3                  106.83      0.68      0.47
  4                   93.25      0.60      0.37
  5                   85.49      0.24      0.04
  6                  629.76      1.79      1.75
  7                  624.91      1.77      1.72
  8                   13.58      0.04      0.00
  9                  607.45      1.72      1.64
  10                   4.85      0.03      0.00
  11                 593.87      1.68      1.57
  12                 560.14      1.59      1.41
  13                 544.62      1.54      1.34
  14                 450.95      1.28      0.94
  15                 402.45      1.14      0.76
  16                  91.73      0.59      0.36
  17                 -12.19      0.08      0.01
  18                  46.13      0.29      0.10
  19                  14.55      0.04      0.00
  20                  -4.85      0.01      0.00
  21                  26.19      0.17      0.03
  22                  46.56      0.13      0.01
  23                  14.12      0.09      0.01
  24                  -1.40      0.01      0.00
  25                  14.01      0.09      0.01
  26                 402.03      1.14      0.76
  27                 412.70      1.17      0.80
  28                 394.27      1.12      0.74
  29                 353.53      1.00      0.60
  30                  34.92      0.10      0.01
  31                  18.43      0.12      0.02
  32                  10.67      0.07      0.01
  34                   1.67      0.01      0.00
  35                   2.91      0.02      0.00
  36                   1.45      0.01      0.00
  37                 -21.34      0.14      0.02
  38                   2.21      0.01      0.00
  39                   2.91      0.02      0.00
  40                   0.70      0.00      0.00
  41                   0.97      0.01      0.00
   
   
  Node Results at 3:00:00 hrs:
  --------------------------------------------------------
                     Demand      Head  Pressure  Fluoride
  Node                  gpm        ft       psi      mg/L
  --------------------------------------------------------
  1                 -666.62    314.91    114.79      1.05
  2                    7.76    310.25     91.10      1.05
  3                   13.58    309.63    108.17      1.05
  4                    7.76    309.19    107.98      1.02
  5                    7.76    309.15     90.63      1.04
  6                    4.85    307.05     78.88      1.04
  7                    3.88    302.39     61.70      1.02
  8                    8.73    302.39     83.36      1.00
  9                   13.58    301.74     52.75      1.02
  10                   4.85    302.39     74.70      1.00
  11                  33.74    300.64     50.11      1.02
  12                  15.52    297.96     38.11      1.02
  13                   1.94    297.16     37.77      1.02
  14                   1.94    296.78     41.94      1.02
  15                   1.94    296.56     46.17      1.01
  16                  19.40    296.63     63.53      0.98
  17                  19.40    296.57     50.51      1.00
  18                  19.40    296.57     85.17      1.00
  19                   4.85    296.58     63.51      1.00
  20                  18.43    296.77     54.93      1.00
  21                  15.52    296.75     63.59      1.00
  22                   9.70    296.76     41.92      1.00
  23                   7.76    295.90     28.55      0.98
  24                  10.67    296.36     46.08      1.00
  25                   5.82    295.68     28.46      0.98
  27                   7.76    295.67     71.78      1.00
  28                   0.00    295.66     80.45      1.00
  29                   6.79    295.66     80.45      1.00
  30                   2.91    295.66     71.78      1.00
  31                  16.49    295.67     45.79      1.00
  32                  16.49    296.57     80.84      1.00
  33                   1.45    296.75     50.59      1.00
  34                   1.45    296.75     46.26      1.00
  35                   0.00    295.66     80.45      1.00
  36                   0.97    295.66     80.45      1.00
  26                 353.53    295.56     26.24      1.00  Tank
   
   
  Link Results at 3:00:00 hrs:
  ----------------------------------------------
                       Flow  Velocity  Headloss
  Link                  gpm       fps   /1000ft
  ----------------------------------------------
  1                  666.62      1.89      1.94
  2                  552.04      1.57      1.37
  3                  106.83      0.68      0.47
  4                   93.25      0.60      0.37
  5                   85.49      0.24      0.04
  6                  629.76      1.79      1.75
  7                  624.91      1.77      1.72
  8                   13.58      0.04      0.00
  9                  607.45      1.72      1.64
  10                   4.85      0.03      0.00
  11                 593.87      1.68      1.57
  12                 560.14      1.59      1.41
  13                 544.62      1.54      1.34
  14                 450.95      1.28      0.94
  15                 402.45      1.14      0.76
  16                  91.72      0.59      0.36
  17                 -12.18      0.08      0.01
  18                  46.13      0.29      0.10
  19                  14.55      0.04      0.00
  20                  -4.85      0.01      0.00
  21                  26.19      0.17      0.03
  22                  46.56      0.13      0.01
  23                  14.12      0.09      0.01
  24                  -1.40      0.01      0.00
  25                  14.01      0.09      0.01
  26                 402.03      1.14      0.76
  27                 412.70      1.17      0.80
  28                 394.27      1.12      0.74
  29                 353.53      1.00      0.60
  30                  34.92      0.10      0.01
  31                  18.43      0.12      0.02
  32                  10.67      0.07      0.01
  34                   1.67      0.01      0.00
  35                   2.91      0.02      0.00
  36                   1.45      0.01      0.00
  37                 -21.34      0.14      0.02
  38                   2.21      0.01      0.00
  39                   2.91      0.02      0.00
  40                   0.70      0.00      0.00
  41                   0.97      0.01      0.00
   
   
  Node Results at 4:00:00 hrs:
  --------------------------------------------------------
                     Demand      Head  Pressure  Fluoride
  Node                  gpm        ft       psi      mg/L
  --------------------------------------------------------
  1                 -666.62    316.70    115.56      0.99
  2                    7.12    312.03     91.87      0.99
  3                   12.46    311.43    108.94      0.99
  4                    7.12    310.98    108.75      1.05
  5                    7.12    310.93     91.40      0.99
  6                    4.45    308.82     79.65      0.99
  7                    3.56    304.11     62.44      1.04
  8                    8.01    304.11     84.11      1.00
  9                   12.46    303.45     53.49      1.04
  10                   4.45    304.11     75.44      1.00
  11                  30.95    302.33     50.84      1.04
  12                  14.24    299.57     38.81      1.04
  13                   1.78    298.74     38.45      1.04
  14                   1.78    298.35     42.62      1.04
  15                   1.78    298.11     46.84      1.04
  16                  17.80    298.20     64.22      1.02
  17                  17.80    298.14     51.19      0.99
  18                  17.80    298.14     85.85      1.00
  19                   4.45    298.15     64.19      1.00
  20                  16.91    298.34     55.61      1.00
  21                  14.24    298.32     64.27      1.00
  22                   8.90    298.32     42.60      1.00
  23                   7.12    297.38     29.20      1.02
  24                   9.79    297.89     46.75      1.03
  25                   5.34    297.14     29.09      1.02
  27                   7.12    297.13     72.42      1.00
  28                   0.00    297.13     81.08      1.00
  29                   6.23    297.13     81.08      1.00
  30                   2.67    297.13     72.42      1.00
  31                  15.13    297.13     46.42      0.99
  32                  15.13    298.14     81.52      1.00
  33                   1.34    298.32     51.27      1.00
  34                   1.34    298.32     46.94      1.00
  35                   0.00    297.13     81.08      1.00
  36                   0.89    297.13     81.08      1.00
  26                 379.35    297.00     26.87      1.00  Tank
   
   
  Link Results at 4:00:00 hrs:
  ----------------------------------------------
                       Flow  Velocity  Headloss
  Link                  gpm       fps   /1000ft
  ----------------------------------------------
  1                  666.62      1.89      1.94
  2                  553.06      1.57      1.38
  3                  106.45      0.68      0.47
  4                   93.99      0.60      0.37
  5                   86.87      0.25      0.04
  6                  632.80      1.80      1.77
  7                  628.35      1.78      1.74
  8                   12.46      0.04      0.00
  9                  612.33      1.74      1.66
  10                   4.45      0.03      0.00
  11                 599.87      1.70      1.60
  12                 568.92      1.61      1.45
  13                 554.68      1.57      1.38
  14                 460.46      1.31      0.98
  15                 415.96      1.18      0.81
  16                  92.44      0.59      0.36
  17                 -19.46      0.12      0.02
  18                  47.79      0.31      0.11
  19                  10.53      0.03      0.00
  20                  -7.27      0.02      0.00
  21                  26.85      0.17      0.04
  22                  42.72      0.12      0.01
  23                  12.95      0.08      0.01
  24                  -1.29      0.01      0.00
  25                  12.86      0.08      0.01
  26                 423.85      1.20      0.84
  27                 433.64      1.23      0.88
  28                 416.73      1.18      0.81
  29                 379.35      1.08      0.68
  30                  32.04      0.09      0.01
  31                  16.91      0.11      0.02
  32                   9.79      0.06      0.01
  34                   1.53      0.01      0.00
  35                   2.67      0.02      0.00
  36                   1.34      0.01      0.00
  37                 -22.40      0.14      0.03
  38                   2.03      0.01      0.00
  39                   2.67      0.02      0.00
  40                   0.64      0.00      0.00
  41                   0.89      0.01      0.00
   
   
  Node Results at 5:00:00 hrs:
  --------------------------------------------------------
                     Demand      Head  Pressure  Fluoride
  Node                  gpm        ft       psi      mg/L
  --------------------------------------------------------
  1                 -666.62    317.01    115.70      0.64
  2                    9.52    312.34     92.01      0.64
  3                   16.66    311.72    109.07      0.67
  4                    9.52    311.30    108.89      0.99
  5                    9.52    311.26     91.54      0.70
  6                    5.95    309.21     79.82      0.70
  7                    4.76    304.68     62.69      0.99
  8                   10.71    304.68     84.35      1.00
  9                   16.66    304.05     53.75      0.99
  10                   5.95    304.68     75.69      1.00
  11                  41.39    303.01     51.13      0.99
  12                  19.04    300.54     39.23      1.00
  13                   2.38    299.82     38.92      1.00
  14                   2.38    299.48     43.10      1.00
  15                   2.38    299.28     47.35      1.00
  16                  23.80    299.32     64.70      1.04
  17                  23.80    299.27     51.68      1.03
  18                  23.80    299.27     86.34      1.00
  19                   5.95    299.28     64.68      0.98
  20                  22.61    299.45     56.09      0.98
  21                  19.04    299.43     64.75      1.00
  22                  11.90    299.43     43.08      1.00
  23                   9.52    298.79     29.81      1.04
  24                  13.09    299.13     47.29      1.02
  25                   7.14    298.63     29.74      1.04
  27                   9.52    298.61     73.06      0.99
  28                   0.00    298.61     81.72      1.00
  29                   8.33    298.61     81.72      1.00
  30                   3.57    298.61     73.06      1.00
  31                  20.23    298.62     47.07      1.00
  32                  20.23    299.27     82.01      1.00
  33                   1.78    299.43     51.75      1.00
  34                   1.78    299.43     47.42      1.00
  35                   0.00    298.61     81.72      1.00
  36                   1.19    298.61     81.72      1.00
  26                 282.52    298.55     27.54      1.00  Tank
   
   
  Link Results at 5:00:00 hrs:
  ----------------------------------------------
                       Flow  Velocity  Headloss
  Link                  gpm       fps   /1000ft
  ----------------------------------------------
  1                  666.62      1.89      1.94
  2                  549.25      1.56      1.36
  3                  107.86      0.69      0.48
  4                   91.20      0.58      0.35
  5                   81.68      0.23      0.04
  6                  621.40      1.76      1.71
  7                  615.45      1.75      1.68
  8                   16.66      0.05      0.00
  9                  594.03      1.69      1.57
  10                   5.95      0.04      0.00
  11                 577.37      1.64      1.49
  12                 535.99      1.52      1.30
  13                 516.95      1.47      1.21
  14                 426.52      1.21      0.85
  15                 367.02      1.04      0.64
  16                  88.04      0.56      0.33
  17                   9.54      0.06      0.01
  18                  40.33      0.26      0.08
  19                  26.07      0.07      0.00
  20                   2.27      0.01      0.00
  21                  23.91      0.15      0.03
  22                  57.12      0.16      0.02
  23                  17.32      0.11      0.02
  24                  -1.72      0.01      0.00
  25                  17.19      0.11      0.02
  26                 342.02      0.97      0.56
  27                 355.11      1.01      0.61
  28                 332.50      0.94      0.54
  29                 282.52      0.80      0.40
  30                  42.84      0.12      0.01
  31                  22.61      0.14      0.03
  32                  13.09      0.08      0.01
  34                   2.05      0.01      0.00
  35                   3.57      0.02      0.00
  36                   1.78      0.01      0.00
  37                 -17.96      0.11      0.02
  38                   2.71      0.02      0.00
  39                   3.57      0.02      0.00
  40                   0.86      0.01      0.00
  41                   1.19      0.01      0.00
   
   
  Node Results at 6:00:00 hrs:
  --------------------------------------------------------
                     Demand      Head  Pressure  Fluoride
  Node                  gpm        ft       psi      mg/L
  --------------------------------------------------------
  1                 -430.53    306.69    111.22      0.46
  2                   10.24    304.61     88.66      0.46
  3                   17.92    304.32    105.86      0.47
  4                   10.24    304.16    105.79      0.64
  5                   10.24    304.15     88.46      0.53
  6                    6.40    303.31     77.26      0.53
  7                    5.12    301.50     61.31      0.69
  8                   11.52    301.50     82.98      1.00
  9                   17.92    301.26     52.54      0.69
  10                   6.40    301.50     74.31      1.00
  11                  44.52    300.88     50.21      0.69
  12                  20.48    300.09     39.04      0.70
  13                   2.56    299.87     38.94      0.70
  14                   2.56    299.79     43.24      0.74
  15                   2.56    299.75     47.56      0.82
  16                  25.60    299.63     64.83      1.00
  17                  25.60    299.61     51.83      1.03
  18                  25.60    299.61     86.49      1.00
  19                   6.40    299.61     64.83      1.02
  20                  24.32    299.76     56.22      1.03
  21                  20.48    299.74     64.88      1.00
  22                  12.80    299.74     43.22      1.00
  23                  10.24    299.72     30.21      0.99
  24                  14.08    299.74     47.55      0.92
  25                   7.68    299.71     30.20      0.99
  27                  10.24    299.69     73.52      1.02
  28                   0.00    299.68     82.19      1.00
  29                   8.96    299.68     82.19      1.00
  30                   3.84    299.68     73.52      1.00
  31                  21.76    299.70     47.53      1.04
  32                  21.76    299.61     82.16      1.00
  33                   1.92    299.74     51.88      1.00
  34                   1.92    299.73     47.55      1.00
  35                   0.00    299.68     82.19      1.00
  36                   1.28    299.68     82.19      1.00
  26                  17.37    299.71     28.04      1.00  Tank
   
   
  Link Results at 6:00:00 hrs:
  ----------------------------------------------
                       Flow  Velocity  Headloss
  Link                  gpm       fps   /1000ft
  ----------------------------------------------
  1                  430.53      1.22      0.87
  2                  348.35      0.99      0.58
  3                   71.93      0.46      0.23
  4                   54.01      0.34      0.13
  5                   43.77      0.12      0.01
  6                  381.89      1.08      0.69
  7                  375.49      1.07      0.67
  8                   17.92      0.05      0.00
  9                  352.45      1.00      0.60
  10                   6.40      0.04      0.00
  11                 334.53      0.95      0.54
  12                 290.01      0.82      0.42
  13                 269.53      0.76      0.36
  14                 206.32      0.59      0.22
  15                 142.32      0.40      0.11
  16                  60.65      0.39      0.17
  17                  44.31      0.28      0.09
  18                  19.91      0.13      0.02
  19                  38.61      0.11      0.01
  20                  13.01      0.04      0.00
  21                  15.15      0.10      0.01
  22                  61.44      0.17      0.02
  23                  18.63      0.12      0.02
  24                  -1.85      0.01      0.00
  25                  18.49      0.12      0.02
  26                  81.37      0.23      0.04
  27                  95.45      0.27      0.05
  28                  71.13      0.20      0.03
  29                  17.37      0.05      0.00
  30                  46.08      0.13      0.01
  31                  24.32      0.16      0.03
  32                  14.08      0.09      0.01
  34                   2.20      0.01      0.00
  35                   3.84      0.02      0.00
  36                   1.92      0.01      0.00
  37                  -8.75      0.06      0.00
  38                   2.92      0.02      0.00
  39                   3.84      0.02      0.00
  40                   0.92      0.01      0.00
  41                   1.28      0.01      0.00
   
   
  Node Results at 7:00:00 hrs:
  --------------------------------------------------------
                     Demand      Head  Pressure  Fluoride
  Node                  gpm        ft       psi      mg/L
  --------------------------------------------------------
  1                    0.00    299.34    108.04      0.35
  2                    5.36    299.34     86.37      0.35
  3                    9.38    299.34    103.71      0.46
  4                    5.36    299.34    103.71      0.47
  5                    5.36    299.34     86.38      0.42
  6                    3.35    299.35     75.55      0.52
  7                    2.68    299.36     60.39      0.52
  8                    6.03    299.36     82.05      1.00
  9                    9.38    299.37     51.72      0.52
  10                   3.35    299.36     73.39      1.00
  11                  23.30    299.38     49.56      0.53
  12                  10.72    299.44     38.76      0.69
  13                   1.34    299.47     38.77      0.69
  14                   1.34    299.49     43.11      0.69
  15                   1.34    299.53     47.46      0.69
  16                  13.40    299.44     64.75      0.71
  17                  13.40    299.44     51.75      1.00
  18                  13.40    299.43     86.41      1.02
  19                   3.35    299.43     64.75      1.02
  20                  12.73    299.49     56.11      1.00
  21                  10.72    299.48     64.77      1.00
  22                   6.70    299.48     43.10      1.00
  23                   5.36    299.67     30.19      0.79
  24                   7.37    299.57     47.47      0.70
  25                   4.02    299.73     30.21      0.92
  27                   5.36    299.72     73.54      1.04
  28                   0.00    299.72     82.21      1.00
  29                   4.69    299.72     82.21      0.99
  30                   2.01    299.72     73.54      1.00
  31                  11.39    299.73     47.54      1.00
  32                  11.39    299.43     82.08      0.99
  33                   1.00    299.48     51.77      1.00
  34                   1.00    299.48     47.44      1.00
  35                   0.00    299.72     82.21      1.00
  36                   0.67    299.72     82.21      1.00
  26                -216.26    299.78     28.07      1.00  Tank
   
   
  Link Results at 7:00:00 hrs:
  ----------------------------------------------
                       Flow  Velocity  Headloss
  Link                  gpm       fps   /1000ft
  ----------------------------------------------
  1                   -0.00      0.00      0.00
  2                  -10.06      0.03      0.00
  3                    4.70      0.03      0.00
  4                   -4.68      0.03      0.00
  5                  -10.04      0.03      0.00
  6                  -25.46      0.07      0.00
  7                  -28.81      0.08      0.01
  8                    9.38      0.03      0.00
  9                  -40.87      0.12      0.01
  10                   3.35      0.02      0.00
  11                 -50.25      0.14      0.02
  12                 -73.55      0.21      0.03
  13                 -84.27      0.24      0.04
  14                -105.59      0.30      0.06
  15                -139.09      0.39      0.11
  16                  19.98      0.13      0.02
  17                  34.96      0.22      0.06
  18                   1.07      0.01      0.00
  19                  22.64      0.06      0.00
  20                   9.24      0.03      0.00
  21                   5.50      0.04      0.00
  22                  32.16      0.09      0.01
  23                   9.75      0.06      0.01
  24                  -0.97      0.01      0.00
  25                   9.68      0.06      0.01
  26                -182.76      0.52      0.18
  27                -175.39      0.50      0.16
  28                -188.12      0.53      0.19
  29                -216.26      0.61      0.24
  30                  24.12      0.07      0.00
  31                  12.73      0.08      0.01
  32                   7.37      0.05      0.00
  34                   1.15      0.01      0.00
  35                   2.01      0.01      0.00
  36                   1.00      0.01      0.00
  37                  -2.15      0.01      0.00
  38                   1.53      0.01      0.00
  39                   2.01      0.01      0.00
  40                   0.48      0.00      0.00
  41                   0.67      0.00      0.00
   
   
  Node Results at 8:00:00 hrs:
  --------------------------------------------------------
                     Demand      Head  Pressure  Fluoride
  Node                  gpm        ft       psi      mg/L
  --------------------------------------------------------
  1                    0.00    298.46    107.66      0.35
  2                    5.36    298.46     85.99      0.35
  3                    9.38    298.46    103.32      0.46
  4                    5.36    298.46    103.32      0.54
  5                    5.36    298.46     85.99      0.42
  6                    3.35    298.46     75.16      0.52
  7                    2.68    298.48     60.00      0.53
  8                    6.03    298.48     81.67      1.00
  9                    9.38    298.48     51.34      0.53
  10                   3.35    298.48     73.00      1.00
  11                  23.30    298.50     49.18      0.53
  12                  10.72    298.56     38.37      0.69
  13                   1.34    298.58     38.38      0.73
  14                   1.34    298.61     42.73      0.99
  15                   1.34    298.64     47.07      1.00
  16                  13.40    298.55     64.37      0.70
  17                  13.40    298.55     51.37      0.71
  18                  13.40    298.55     86.03      1.03
  19                   3.35    298.55     64.37      1.03
  20                  12.73    298.60     55.72      0.98
  21                  10.72    298.59     64.39      1.00
  22                   6.70    298.59     42.72      1.00
  23                   5.36    298.79     29.81      1.00
  24                   7.37    298.68     47.09      1.00
  25                   4.02    298.84     29.83      1.00
  27                   5.36    298.84     73.16      1.00
  28                   0.00    298.84     81.82      1.00
  29                   4.69    298.84     81.82      1.02
  30                   2.01    298.84     73.16      1.00
  31                  11.39    298.84     47.16      1.00
  32                  11.39    298.55     81.70      1.00
  33                   1.00    298.59     51.39      1.00
  34                   1.00    298.59     47.05      1.00
  35                   0.00    298.84     81.82      1.00
  36                   0.67    298.84     81.82      1.00
  26                -216.26    298.89     27.68      1.00  Tank
   
   
  Link Results at 8:00:00 hrs:
  ----------------------------------------------
                       Flow  Velocity  Headloss
  Link                  gpm       fps   /1000ft
  ----------------------------------------------
  1                   -0.00      0.00      0.00
  2                  -10.06      0.03      0.00
  3                    4.70      0.03      0.00
  4                   -4.68      0.03      0.00
  5                  -10.04      0.03      0.00
  6                  -25.46      0.07      0.00
  7                  -28.81      0.08      0.01
  8                    9.38      0.03      0.00
  9                  -40.87      0.12      0.01
  10                   3.35      0.02      0.00
  11                 -50.25      0.14      0.02
  12                 -73.55      0.21      0.03
  13                 -84.27      0.24      0.04
  14                -105.59      0.30      0.06
  15                -139.09      0.39      0.11
  16                  19.98      0.13      0.02
  17                  34.96      0.22      0.06
  18                   1.07      0.01      0.00
  19                  22.64      0.06      0.00
  20                   9.24      0.03      0.00
  21                   5.50      0.04      0.00
  22                  32.16      0.09      0.01
  23                   9.75      0.06      0.01
  24                  -0.97      0.01      0.00
  25                   9.68      0.06      0.01
  26                -182.76      0.52      0.18
  27                -175.39      0.50      0.16
  28                -188.12      0.53      0.19
  29                -216.26      0.61      0.24
  30                  24.12      0.07      0.00
  31                  12.73      0.08      0.01
  32                   7.37      0.05      0.00
  34                   1.15      0.01      0.00
  35                   2.01      0.01      0.00
  36                   1.00      0.01      0.00
  37                  -2.15      0.01      0.00
  38                   1.53      0.01      0.00
  39                   2.01      0.01      0.00
  40                   0.48      0.00      0.00
  41                   0.67      0.00      0.00
   
   
  Node Results at 9:00:00 hrs:
  --------------------------------------------------------
                     Demand      Head  Pressure  Fluoride
  Node                  gpm        ft       psi      mg/L
  --------------------------------------------------------
  1                    0.00    296.44    106.78      0.35
  2                   10.72    296.44     85.12      0.35
  3                   18.76    296.43    102.45      0.46
  4                   10.72    296.44    102.45      0.64
  5                   10.72    296.44     85.12      0.42
  6                    6.70    296.46     74.30      0.52
  7                    5.36    296.52     59.15      0.53
  8                   12.06    296.52     80.82      1.00
  9                   18.76    296.54     50.50      0.53
  10                   6.70    296.52     72.15      1.00
  11                  46.61    296.58     48.35      0.60
  12                  21.44    296.80     37.61      0.96
  13                   2.68    296.89     37.65      1.00
  14                   2.68    296.99     42.02      1.00
  15                   2.68    297.10     46.41      1.00
  16                  26.80    296.78     63.60      0.70
  17                  26.80    296.78     50.60      0.71
  18                  26.80    296.77     85.26      1.00
  19                   6.70    296.77     63.60      1.04
  20                  25.46    296.96     55.01      0.70
  21                  21.44    296.93     63.67      0.99
  22                  13.40    296.93     42.00      0.99
  23                  10.72    297.63     29.31      1.00
  24                  14.74    297.25     46.47      1.00
  25                   8.04    297.84     29.39      1.00
  27                  10.72    297.81     72.71      1.00
  28                   0.00    297.81     81.38      1.00
  29                   9.38    297.81     81.38      1.04
  30                   4.02    297.81     72.71      1.00
  31                  22.78    297.83     46.72      0.96
  32                  22.78    296.77     80.93      1.00
  33                   2.01    296.93     50.67      1.00
  34                   2.01    296.93     46.33      1.00
  35                   0.00    297.81     81.38      1.00
  36                   1.34    297.81     81.38      1.00
  26                -432.53    298.01     27.30      1.00  Tank
   
   
  Link Results at 9:00:00 hrs:
  ----------------------------------------------
                       Flow  Velocity  Headloss
  Link                  gpm       fps   /1000ft
  ----------------------------------------------
  1                   -0.00      0.00      0.00
  2                  -20.12      0.06      0.00
  3                    9.40      0.06      0.01
  4                   -9.36      0.06      0.01
  5                  -20.08      0.06      0.00
  6                  -50.92      0.14      0.02
  7                  -57.62      0.16      0.02
  8                   18.76      0.05      0.00
  9                  -81.74      0.23      0.04
  10                   6.70      0.04      0.00
  11                -100.50      0.29      0.06
  12                -147.11      0.42      0.12
  13                -168.55      0.48      0.15
  14                -211.18      0.60      0.23
  15                -278.18      0.79      0.39
  16                  39.96      0.26      0.08
  17                  69.92      0.45      0.22
  18                   2.15      0.01      0.00
  19                  45.27      0.13      0.01
  20                  18.47      0.05      0.00
  21                  11.01      0.07      0.01
  22                  64.32      0.18      0.03
  23                  19.50      0.12      0.02
  24                  -1.94      0.01      0.00
  25                  19.36      0.12      0.02
  26                -365.53      1.04      0.64
  27                -350.79      1.00      0.59
  28                -376.25      1.07      0.67
  29                -432.53      1.23      0.87
  30                  48.24      0.14      0.02
  31                  25.46      0.16      0.03
  32                  14.74      0.09      0.01
  34                   2.31      0.01      0.00
  35                   4.02      0.03      0.00
  36                   2.01      0.01      0.00
  37                  -4.31      0.03      0.00
  38                   3.05      0.02      0.00
  39                   4.02      0.03      0.00
  40                   0.97      0.01      0.00
  41                   1.34      0.01      0.00
   
   
  Node Results at 10:00:00 hrs:
  --------------------------------------------------------
                     Demand      Head  Pressure  Fluoride
  Node                  gpm        ft       psi      mg/L
  --------------------------------------------------------
  1                    0.00    291.41    104.60      0.35
  2                   19.68    291.41     82.94      0.35
  3                   34.44    291.39    100.26      0.46
  4                   19.68    291.41    100.27      0.64
  5                   19.68    291.42     82.94      0.51
  6                   12.30    291.48     72.14      0.52
  7                    9.84    291.65     57.05      0.56
  8                   22.14    291.65     78.71      0.98
  9                   34.44    291.70     48.40      0.69
  10                  12.30    291.64     70.04      1.00
  11                  85.56    291.83     46.29      0.69
  12                  39.36    292.52     35.76      1.00
  13                   4.92    292.80     35.88      1.00
  14                   4.92    293.09     40.34      1.00
  15                   4.92    293.45     44.82      1.00
  16                  49.20    292.45     61.72      0.70
  17                  49.20    292.45     48.73      1.00
  18                  49.20    292.42     83.38      0.72
  19                  12.30    292.42     61.71      1.04
  20                  46.74    293.00     53.30      0.72
  21                  39.36    292.92     61.93      1.03
  22                  24.60    292.92     40.26      1.04
  23                  19.68    295.08     28.20      1.00
  24                  27.06    293.90     45.02      1.00
  25                  14.76    295.71     28.47      1.00
  27                  19.68    295.64     71.77      0.99
  28                   0.00    295.62     80.43      1.00
  29                  17.22    295.62     80.43      1.00
  30                   7.38    295.62     71.76      1.00
  31                  41.82    295.68     45.79      1.00
  32                  41.82    292.42     79.04      1.02
  33                   3.69    292.92     48.93      1.00
  34                   3.69    292.92     44.59      1.00
  35                   0.00    295.62     80.43      1.00
  36                   2.46    295.62     80.43      1.00
  26                -794.04    296.24     26.54      1.00  Tank
   
   
  Link Results at 10:00:00 hrs:
  ----------------------------------------------
                       Flow  Velocity  Headloss
  Link                  gpm       fps   /1000ft
  ----------------------------------------------
  1                    0.00      0.00      0.00
  2                  -36.94      0.10      0.01
  3                   17.26      0.11      0.02
  4                  -17.18      0.11      0.02
  5                  -36.86      0.10      0.01
  6                  -93.48      0.27      0.05
  7                 -105.78      0.30      0.06
  8                   34.44      0.10      0.00
  9                 -150.06      0.43      0.12
  10                  12.30      0.08      0.00
  11                -184.50      0.52      0.18
  12                -270.06      0.77      0.36
  13                -309.42      0.88      0.47
  14                -387.69      1.10      0.71
  15                -510.69      1.45      1.19
  16                  73.35      0.47      0.24
  17                 128.37      0.82      0.66
  18                   3.94      0.03      0.00
  19                  83.11      0.24      0.04
  20                  33.91      0.10      0.01
  21                  20.21      0.13      0.02
  22                 118.08      0.33      0.08
  23                  35.80      0.23      0.06
  24                  -3.56      0.02      0.00
  25                  35.54      0.23      0.06
  26                -671.04      1.90      1.97
  27                -643.98      1.83      1.82
  28                -690.72      1.96      2.08
  29                -794.04      2.25      2.69
  30                  88.56      0.25      0.05
  31                  46.74      0.30      0.10
  32                  27.06      0.17      0.04
  34                   4.24      0.03      0.00
  35                   7.38      0.05      0.00
  36                   3.69      0.02      0.00
  37                  -7.91      0.05      0.00
  38                   5.60      0.04      0.00
  39                   7.38      0.05      0.00
  40                   1.78      0.01      0.00
  41                   2.46      0.02      0.00
   
   
  Node Results at 11:00:00 hrs:
  --------------------------------------------------------
                     Demand      Head  Pressure  Fluoride
  Node                  gpm        ft       psi      mg/L
  --------------------------------------------------------
  1                    0.00    292.14    104.92      0.35
  2                    7.76    292.14     83.25      0.35
  3                   13.58    292.13    100.58      0.41
  4                    7.76    292.14    100.58      0.64
  5                    7.76    292.14     83.25      0.52
  6                    4.85    292.15     72.43      0.52
  7                    3.88    292.18     57.27      1.00
  8                    8.73    292.18     78.94      1.03
  9                   13.58    292.19     48.61      1.00
  10                   4.85    292.18     70.27      1.00
  11                  33.74    292.21     46.45      1.00
  12                  15.52    292.34     35.68      1.00
  13                   1.94    292.39     35.70      1.00
  14                   1.94    292.44     40.05      1.00
  15                   1.94    292.50     44.41      1.00
  16                  19.40    292.32     61.67      1.00
  17                  19.40    292.32     48.67      1.00
  18                  19.40    292.32     83.33      1.00
  19                   4.85    292.32     61.67      1.00
  20                  18.43    292.42     53.05      1.00
  21                  15.52    292.41     61.70      0.72
  22                   9.70    292.41     40.04      0.70
  23                   7.76    292.79     27.21      1.00
  24                  10.67    292.58     44.45      1.00
  25                   5.82    292.90     27.26      1.00
  27                   7.76    292.89     70.58      1.00
  28                   0.00    292.89     79.25      1.00
  29                   6.79    292.89     79.25      1.00
  30                   2.91    292.89     70.58      1.00
  31                  16.49    292.90     44.59      1.00
  32                  16.49    292.32     79.00      0.79
  33                   1.45    292.41     48.71      1.00
  34                   1.45    292.41     44.37      1.00
  35                   0.00    292.89     79.25      1.00
  36                   0.97    292.89     79.25      1.00
  26                -313.10    293.00     25.13      1.00  Tank
   
   
  Link Results at 11:00:00 hrs:
  ----------------------------------------------
                       Flow  Velocity  Headloss
  Link                  gpm       fps   /1000ft
  ----------------------------------------------
  1                    0.00      0.00      0.00
  2                  -14.57      0.04      0.00
  3                    6.81      0.04      0.00
  4                   -6.77      0.04      0.00
  5                  -14.53      0.04      0.00
  6                  -36.86      0.10      0.01
  7                  -41.71      0.12      0.01
  8                   13.58      0.04      0.00
  9                  -59.17      0.17      0.02
  10                   4.85      0.03      0.00
  11                 -72.75      0.21      0.03
  12                -106.49      0.30      0.07
  13                -122.01      0.35      0.08
  14                -152.87      0.43      0.13
  15                -201.37      0.57      0.21
  16                  28.92      0.18      0.04
  17                  50.62      0.32      0.12
  18                   1.55      0.01      0.00
  19                  32.77      0.09      0.01
  20                  13.37      0.04      0.00
  21                   7.97      0.05      0.00
  22                  46.56      0.13      0.01
  23                  14.12      0.09      0.01
  24                  -1.40      0.01      0.00
  25                  14.01      0.09      0.01
  26                -264.60      0.75      0.35
  27                -253.93      0.72      0.33
  28                -272.36      0.77      0.37
  29                -313.10      0.89      0.48
  30                  34.92      0.10      0.01
  31                  18.43      0.12      0.02
  32                  10.67      0.07      0.01
  34                   1.67      0.01      0.00
  35                   2.91      0.02      0.00
  36                   1.45      0.01      0.00
  37                  -3.12      0.02      0.00
  38                   2.21      0.01      0.00
  39                   2.91      0.02      0.00
  40                   0.70      0.00      0.00
  41                   0.97      0.01      0.00
   
   
  Node Results at 12:00:00 hrs:
  --------------------------------------------------------
                     Demand      Head  Pressure  Fluoride
  Node                  gpm        ft       psi      mg/L
  --------------------------------------------------------
  1                 -555.52    305.13    110.55      0.35
  2                    7.36    301.81     87.44      0.42
  3                   12.88    301.36    104.58      0.41
  4                    7.36    301.06    104.45      0.81
  5                    7.36    301.03     87.11      0.52
  6                    4.60    299.55     75.63      0.52
  7                    3.68    296.29     59.05      1.00
  8                    8.28    296.28     80.72      0.79
  9                   12.88    295.83     50.19      1.00
  10                   4.60    296.28     72.05      1.00
  11                  32.00    295.07     47.69      1.00
  12                  14.72    293.25     36.07      1.00
  13                   1.84    292.71     35.84      1.00
  14                   1.84    292.46     40.06      1.00
  15                   1.84    292.31     44.33      1.00
  16                  18.40    292.35     61.68      1.00
  17                  18.40    292.31     48.67      1.00
  18                  18.40    292.31     83.33      1.00
  19                   4.60    292.32     61.67      1.00
  20                  17.48    292.45     53.06      1.00
  21                  14.72    292.43     61.72      0.72
  22                   9.20    292.43     40.05      0.70
  23                   7.36    291.92     26.83      1.00
  24                  10.12    292.19     44.28      1.00
  25                   5.52    291.79     26.77      1.00
  27                   7.36    291.78     70.10      1.00
  28                   0.00    291.77     78.76      1.00
  29                   6.44    291.77     78.76      1.00
  30                   2.76    291.77     70.10      1.00
  31                  15.64    291.78     44.10      1.00
  32                  15.64    292.31     79.00      0.85
  33                   1.38    292.43     48.72      1.00
  34                   1.38    292.43     44.38      1.00
  35                   0.00    291.77     78.76      1.00
  36                   0.92    291.77     78.76      1.00
  26                 258.56    291.72     24.58      1.00  Tank
   
   
  Link Results at 12:00:00 hrs:
  ----------------------------------------------
                       Flow  Velocity  Headloss
  Link                  gpm       fps   /1000ft
  ----------------------------------------------
  1                  555.52      1.58      1.39
  2                  458.61      1.30      0.97
  3                   89.55      0.57      0.34
  4                   76.67      0.49      0.26
  5                   69.31      0.20      0.03
  6                  520.56      1.48      1.23
  7                  515.96      1.46      1.21
  8                   12.88      0.04      0.00
  9                  499.40      1.42      1.14
  10                   4.60      0.03      0.00
  11                 486.52      1.38      1.09
  12                 454.52      1.29      0.96
  13                 439.80      1.25      0.90
  14                 363.40      1.03      0.63
  15                 317.40      0.90      0.49
  16                  74.57      0.48      0.24
  17                   0.87      0.01      0.00
  18                  35.52      0.23      0.06
  19                  17.99      0.05      0.00
  20                  -0.41      0.00      0.00
  21                  20.65      0.13      0.02
  22                  44.16      0.13      0.01
  23                  13.39      0.09      0.01
  24                  -1.33      0.01      0.00
  25                  13.29      0.08      0.01
  26                 304.56      0.86      0.46
  27                 314.68      0.89      0.48
  28                 297.20      0.84      0.44
  29                 258.56      0.73      0.34
  30                  33.12      0.09      0.01
  31                  17.48      0.11      0.02
  32                  10.12      0.06      0.01
  34                   1.58      0.01      0.00
  35                   2.76      0.02      0.00
  36                   1.38      0.01      0.00
  37                 -16.05      0.10      0.01
  38                   2.10      0.01      0.00
  39                   2.76      0.02      0.00
  40                   0.66      0.00      0.00
  41                   0.92      0.01      0.00
   
   
  Node Results at 13:00:00 hrs:
  --------------------------------------------------------
                     Demand      Head  Pressure  Fluoride
  Node                  gpm        ft       psi      mg/L
  --------------------------------------------------------
  1                 -694.40    315.17    114.90      0.17
  2                    5.44    310.14     91.05      0.17
  3                    9.52    309.50    108.11      0.35
  4                    5.44    308.99    107.89      0.35
  5                    5.44    308.94     90.53      0.21
  6                    3.40    306.59     78.68      0.21
  7                    2.72    301.37     61.25      0.38
  8                    6.12    301.37     82.92      0.69
  9                    9.52    300.62     52.26      0.46
  10                   3.40    301.37     74.25      1.00
  11                  23.65    299.34     49.55      0.52
  12                  10.88    296.12     37.31      0.55
  13                   1.36    295.13     36.89      0.75
  14                   1.36    294.65     41.01      0.92
  15                   1.36    294.34     45.21      0.99
  16                  13.60    294.54     62.63      1.00
  17                  13.60    294.46     49.60      1.00
  18                  13.60    294.46     84.26      1.00
  19                   3.40    294.48     62.60      0.70
  20                  12.92    294.65     54.01      1.00
  21                  10.88    294.64     62.67      1.00
  22                   6.80    294.64     41.01      1.00
  23                   5.44    293.33     27.44      1.00
  24                   7.48    294.04     45.08      1.00
  25                   4.08    292.98     27.29      1.00
  27                   5.44    292.98     70.62      1.00
  28                   0.00    292.98     79.28      1.00
  29                   4.76    292.98     79.28      1.00
  30                   2.04    292.98     70.62      1.00
  31                  11.56    292.98     44.62      1.00
  32                  11.56    294.46     79.93      1.00
  33                   1.02    294.64     49.67      1.00
  34                   1.02    294.64     45.34      1.00
  35                   0.00    292.98     79.28      1.00
  36                   0.68    292.98     79.28      1.00
  26                 474.91    292.78     25.03      1.00  Tank
   
   
  Link Results at 13:00:00 hrs:
  ----------------------------------------------
                       Flow  Velocity  Headloss
  Link                  gpm       fps   /1000ft
  ----------------------------------------------
  1                  694.40      1.97      2.10
  2                  579.27      1.64      1.50
  3                  109.69      0.70      0.50
  4                  100.17      0.64      0.42
  5                   94.73      0.27      0.05
  6                  668.56      1.90      1.95
  7                  665.16      1.89      1.94
  8                    9.52      0.03      0.00
  9                  652.92      1.85      1.87
  10                   3.40      0.02      0.00
  11                 643.40      1.83      1.82
  12                 619.75      1.76      1.70
  13                 608.87      1.73      1.64
  14                 510.75      1.45      1.19
  15                 476.75      1.35      1.05
  16                  96.76      0.62      0.39
  17                 -41.00      0.26      0.08
  18                  53.63      0.34      0.13
  19                  -0.97      0.00      0.00
  20                 -14.57      0.04      0.00
  21                  29.53      0.19      0.04
  22                  32.64      0.09      0.01
  23                   9.90      0.06      0.01
  24                  -0.98      0.01      0.00
  25                   9.82      0.06      0.01
  26                 508.91      1.44      1.18
  27                 516.39      1.46      1.21
  28                 503.47      1.43      1.16
  29                 474.91      1.35      1.04
  30                  24.48      0.07      0.00
  31                  12.92      0.08      0.01
  32                   7.48      0.05      0.00
  34                   1.17      0.01      0.00
  35                   2.04      0.01      0.00
  36                   1.02      0.01      0.00
  37                 -26.13      0.17      0.03
  38                   1.55      0.01      0.00
  39                   2.04      0.01      0.00
  40                   0.49      0.00      0.00
  41                   0.68      0.00      0.00
   
   
  Node Results at 14:00:00 hrs:
  --------------------------------------------------------
                     Demand      Head  Pressure  Fluoride
  Node                  gpm        ft       psi      mg/L
  --------------------------------------------------------
  1                 -694.40    313.86    114.33      0.17
  2                   11.44    308.83     90.49      0.17
  3                   20.02    308.15    107.52      0.17
  4                   11.44    307.71    107.33      0.17
  5                   11.44    307.67     89.98      0.20
  6                    7.15    305.50     78.21      0.21
  7                    5.72    300.74     60.98      0.24
  8                   12.87    300.73     82.65      0.53
  9                   20.02    300.08     52.03      0.26
  10                   7.15    300.73     73.98      1.00
  11                  49.74    299.01     49.40      0.22
  12                  22.88    296.53     37.49      0.21
  13                   2.86    295.81     37.18      0.22
  14                   2.86    295.47     41.37      0.27
  15                   2.86    295.30     45.63      0.39
  16                  28.60    295.28     62.95      0.53
  17                  28.60    295.24     49.93      0.99
  18                  28.60    295.24     84.60      1.00
  19                   7.15    295.24     62.93      1.00
  20                  27.17    295.44     54.35      1.00
  21                  22.88    295.41     63.01      1.00
  22                  14.30    295.41     41.34      1.00
  23                  11.44    294.90     28.12      0.44
  24                  15.73    295.17     45.57      0.42
  25                   8.58    294.77     28.07      0.47
  27                  11.44    294.75     71.38      1.00
  28                   0.00    294.74     80.05      1.00
  29                  10.01    294.74     80.05      1.00
  30                   4.29    294.74     71.38      1.00
  31                  24.31    294.76     45.39      1.00
  32                  24.31    295.24     80.26      0.70
  33                   2.14    295.41     50.01      1.00
  34                   2.14    295.41     45.67      1.00
  35                   0.00    294.74     80.05      1.00
  36                   1.43    294.74     80.05      1.00
  26                 232.82    294.72     25.88      0.99  Tank
   
   
  Link Results at 14:00:00 hrs:
  ----------------------------------------------
                       Flow  Velocity  Headloss
  Link                  gpm       fps   /1000ft
  ----------------------------------------------
  1                  694.40      1.97      2.10
  2                  569.73      1.62      1.45
  3                  113.23      0.72      0.53
  4                   93.21      0.59      0.37
  5                   81.77      0.23      0.04
  6                  640.06      1.82      1.80
  7                  632.91      1.80      1.77
  8                   20.02      0.06      0.00
  9                  607.17      1.72      1.64
  10                   7.15      0.05      0.00
  11                 587.15      1.67      1.54
  12                 537.41      1.52      1.30
  13                 514.53      1.46      1.20
  14                 421.13      1.19      0.83
  15                 349.63      0.99      0.59
  16                  90.54      0.58      0.35
  17                  26.72      0.17      0.04
  18                  38.16      0.24      0.07
  19                  36.27      0.10      0.01
  20                   7.67      0.02      0.00
  21                  23.79      0.15      0.03
  22                  68.64      0.19      0.03
  23                  20.81      0.13      0.02
  24                  -2.07      0.01      0.00
  25                  20.66      0.13      0.02
  26                 304.32      0.86      0.46
  27                 320.05      0.91      0.50
  28                 292.88      0.83      0.42
  29                 232.82      0.66      0.28
  30                  51.48      0.15      0.02
  31                  27.17      0.17      0.04
  32                  15.73      0.10      0.01
  34                   2.46      0.02      0.00
  35                   4.29      0.03      0.00
  36                   2.14      0.01      0.00
  37                 -16.64      0.11      0.02
  38                   3.26      0.02      0.00
  39                   4.29      0.03      0.00
  40                   1.03      0.01      0.00
  41                   1.43      0.01      0.00
   
   
  Node Results at 15:00:00 hrs:
  --------------------------------------------------------
                     Demand      Head  Pressure  Fluoride
  Node                  gpm        ft       psi      mg/L
  --------------------------------------------------------
  1                 -694.40    318.40    116.30      0.13
  2                    4.88    313.37     92.45      0.13
  3                    8.54    312.73    109.51      0.13
  4                    4.88    312.22    109.29      0.17
  5                    4.88    312.17     91.93      0.14
  6                    3.05    309.80     80.08      0.14
  7                    2.44    304.53     62.63      0.19
  8                    5.49    304.53     84.29      0.53
  9                    8.54    303.78     53.63      0.19
  10                   3.05    304.53     75.62      1.00
  11                  21.22    302.48     50.90      0.19
  12                   9.76    299.18     38.64      0.21
  13                   1.22    298.17     38.20      0.21
  14                   1.22    297.68     42.32      0.23
  15                   1.22    297.35     46.51      0.24
  16                  12.20    297.58     63.95      0.21
  17                  12.20    297.50     50.91      0.64
  18                  12.20    297.50     85.58      1.00
  19                   3.05    297.52     63.92      1.00
  20                  11.59    297.67     55.32      1.00
  21                   9.76    297.66     63.98      1.00
  22                   6.10    297.66     42.32      1.00
  23                   4.88    296.27     28.71      0.24
  24                   6.71    297.02     46.37      0.24
  25                   3.66    295.89     28.55      0.22
  27                   4.88    295.89     71.88      1.00
  28                   0.00    295.89     80.54      1.00
  29                   4.27    295.89     80.55      1.00
  30                   1.83    295.89     71.88      1.00
  31                  10.37    295.89     45.88      0.57
  32                  10.37    297.50     81.24      0.92
  33                   0.92    297.66     50.98      1.00
  34                   0.92    297.66     46.65      1.00
  35                   0.00    295.89     80.54      0.99
  36                   0.61    295.89     80.54      1.00
  26                 497.50    295.67     26.29      0.98  Tank
   
   
  Link Results at 15:00:00 hrs:
  ----------------------------------------------
                       Flow  Velocity  Headloss
  Link                  gpm       fps   /1000ft
  ----------------------------------------------
  1                  694.40      1.97      2.10
  2                  580.17      1.65      1.50
  3                  109.35      0.70      0.49
  4                  100.81      0.64      0.42
  5                   95.93      0.27      0.05
  6                  671.22      1.90      1.97
  7                  668.17      1.90      1.95
  8                    8.54      0.02      0.00
  9                  657.19      1.86      1.89
  10                   3.05      0.02      0.00
  11                 648.65      1.84      1.85
  12                 627.43      1.78      1.74
  13                 617.67      1.75      1.69
  14                 519.91      1.47      1.23
  15                 489.41      1.39      1.10
  16                  96.54      0.62      0.39
  17                 -46.52      0.30      0.10
  18                  54.49      0.35      0.14
  19                  -4.23      0.01      0.00
  20                 -16.43      0.05      0.00
  21                  29.85      0.19      0.04
  22                  29.28      0.08      0.01
  23                   8.88      0.06      0.00
  24                  -0.88      0.01      0.00
  25                   8.81      0.06      0.00
  26                 528.00      1.50      1.26
  27                 534.71      1.52      1.29
  28                 523.12      1.48      1.24
  29                 497.50      1.41      1.13
  30                  21.96      0.06      0.00
  31                  11.59      0.07      0.01
  32                   6.71      0.04      0.00
  34                   1.05      0.01      0.00
  35                   1.83      0.01      0.00
  36                   0.92      0.01      0.00
  37                 -26.80      0.17      0.04
  38                   1.39      0.01      0.00
  39                   1.83      0.01      0.00
  40                   0.44      0.00      0.00
  41                   0.61      0.00      0.00
   
   
  Node Results at 16:00:00 hrs:
  --------------------------------------------------------
                     Demand      Head  Pressure  Fluoride
  Node                  gpm        ft       psi      mg/L
  --------------------------------------------------------
  1                 -694.40    321.96    117.84      0.13
  2                    2.48    316.93     94.00      0.13
  3                    4.34    316.31    111.06      0.13
  4                    2.48    315.77    110.83      0.13
  5                    2.48    315.71     93.47      0.14
  6                    1.55    313.27     81.58      0.14
  7                    1.24    307.81     64.05      0.14
  8                    2.79    307.81     85.71      0.53
  9                    4.34    307.02     55.04      0.14
  10                   1.55    307.81     77.05      1.00
  11                  10.78    305.64     52.27      0.14
  12                   4.96    302.01     39.87      0.14
  13                   0.62    300.88     39.38      0.14
  14                   0.62    300.31     43.47      0.14
  15                   0.62    299.91     47.62      0.23
  16                   6.20    300.31     65.13      0.19
  17                   6.20    300.22     52.09      0.27
  18                   6.20    300.23     86.76      1.00
  19                   1.55    300.25     65.10      0.60
  20                   5.89    300.31     56.46      0.39
  21                   4.96    300.31     65.13      1.00
  22                   3.10    300.31     43.46      1.00
  23                   2.48    298.51     29.68      0.26
  24                   3.41    299.49     47.44      0.24
  25                   1.86    298.01     29.47      0.26
  27                   2.48    298.01     72.80      0.96
  28                   0.00    298.01     81.47      1.00
  29                   2.17    298.01     81.47      1.00
  30                   0.93    298.01     72.80      1.00
  31                   5.27    298.01     46.80      0.40
  32                   5.27    300.23     82.43      1.00
  33                   0.46    300.31     52.13      1.00
  34                   0.46    300.31     47.80      1.00
  35                   0.00    298.01     81.47      1.01
  36                   0.31    298.01     81.47      1.00
  26                 594.34    297.70     27.17      0.96  Tank
   
   
  Link Results at 16:00:00 hrs:
  ----------------------------------------------
                       Flow  Velocity  Headloss
  Link                  gpm       fps   /1000ft
  ----------------------------------------------
  1                  694.40      1.97      2.10
  2                  584.06      1.66      1.52
  3                  107.86      0.69      0.48
  4                  103.52      0.66      0.45
  5                  101.04      0.29      0.06
  6                  682.62      1.94      2.03
  7                  681.07      1.93      2.02
  8                    4.34      0.01      0.00
  9                  675.49      1.92      1.99
  10                   1.55      0.01      0.00
  11                 671.15      1.90      1.97
  12                 660.37      1.87      1.91
  13                 655.41      1.86      1.88
  14                 560.47      1.59      1.41
  15                 544.97      1.55      1.34
  16                  94.31      0.60      0.37
  17                 -68.89      0.44      0.21
  18                  57.45      0.37      0.15
  19                 -17.64      0.05      0.00
  20                 -23.84      0.07      0.00
  21                  30.66      0.20      0.05
  22                  14.88      0.04      0.00
  23                   4.51      0.03      0.00
  24                  -0.45      0.00      0.00
  25                   4.48      0.03      0.00
  26                 609.84      1.73      1.65
  27                 613.25      1.74      1.67
  28                 607.36      1.72      1.64
  29                 594.34      1.69      1.57
  30                  11.16      0.03      0.00
  31                   5.89      0.04      0.00
  32                   3.41      0.02      0.00
  34                   0.53      0.00      0.00
  35                   0.93      0.01      0.00
  36                   0.46      0.00      0.00
[...]
  3                  101.81      0.65      0.43
  4                   90.47      0.58      0.35
  5                   83.99      0.24      0.04
  6                  608.07      1.72      1.64
  7                  604.02      1.71      1.62
  8                   11.34      0.03      0.00
  9                  589.44      1.67      1.55
  10                   4.05      0.03      0.00
  11                 578.10      1.64      1.49
  12                 549.93      1.56      1.36
  13                 536.97      1.52      1.30
  14                 446.51      1.27      0.93
  15                 406.01      1.15      0.78
  16                  88.83      0.57      0.34
  17                 -22.41      0.14      0.03
  18                  46.58      0.30      0.10
  19                   7.97      0.02      0.00
  20                  -8.23      0.02      0.00
  21                  26.05      0.17      0.03
  22                  38.88      0.11      0.01
  23                  11.79      0.08      0.01
  24                  -1.17      0.01      0.00
  25                  11.70      0.07      0.01
  26                 417.90      1.19      0.82
  27                 426.81      1.21      0.85
  28                 411.42      1.17      0.80
  29                 377.40      1.07      0.68
  30                  29.16      0.08      0.01
  31                  15.39      0.10      0.01
  32                   8.91      0.06      0.00
  34                   1.39      0.01      0.00
  35                   2.43      0.02      0.00
  36                   1.22      0.01      0.00
  37                 -22.00      0.14      0.03
  38                   1.85      0.01      0.00
  39                   2.43      0.02      0.00
  40                   0.58      0.00      0.00
  41                   0.81      0.01      0.00
   
   
  Node Results at 52:00:00 hrs:
  --------------------------------------------------------
                     Demand      Head  Pressure  Fluoride
  Node                  gpm        ft       psi      mg/L
  --------------------------------------------------------
  1                 -638.85    312.66    113.81      0.72
  2                    7.04    308.35     90.28      0.72
  3                   12.32    307.79    107.37      0.62
  4                    7.04    307.38    107.19      0.35
  5                    7.04    307.33     89.84      0.63
  6                    4.40    305.38     78.16      0.63
  7                    3.52    301.05     61.12      0.31
  8                    7.92    301.05     82.78      0.09
  9                   12.32    300.44     52.19      0.31
  10                   4.40    301.05     74.12      0.09
  11                  30.61    299.41     49.57      0.31
  12                  14.08    296.89     37.65      0.31
  13                   1.76    296.13     37.32      0.30
  14                   1.76    295.78     41.50      0.26
  15                   1.76    295.56     45.74      0.22
  16                  17.60    295.63     63.10      0.09
  17                  17.60    295.58     50.08      0.09
  18                  17.60    295.58     84.74      0.75
  19                   4.40    295.59     63.08      0.77
  20                  16.72    295.76     54.49      0.77
  21                  14.08    295.75     63.15      0.76
  22                   8.80    295.75     41.49      0.77
  23                   7.04    294.91     28.13      0.12
  24                   9.68    295.36     45.65      0.15
  25                   5.28    294.69     28.03      0.12
  27                   7.04    294.68     71.36      0.77
  28                   0.00    294.68     80.02      0.09
  29                   6.16    294.68     80.02      0.77
  30                   2.64    294.68     71.35      0.95
  31                  14.96    294.69     45.36      0.77
  32                  14.96    295.58     80.41      0.77
  33                   1.32    295.75     50.15      0.10
  34                   1.32    295.75     45.82      0.93
  35                   0.00    294.68     80.02      0.88
  36                   0.88    294.68     80.02      0.24
  26                 354.80    294.57     25.81      0.75  Tank
   
   
  Link Results at 52:00:00 hrs:
  ----------------------------------------------
                       Flow  Velocity  Headloss
  Link                  gpm       fps   /1000ft
  ----------------------------------------------
  1                  638.85      1.81      1.80
  2                  529.67      1.50      1.27
  3                  102.14      0.65      0.43
  4                   89.82      0.57      0.34
  5                   82.78      0.23      0.04
  6                  605.41      1.72      1.63
  7                  601.01      1.70      1.60
  8                   12.32      0.03      0.00
  9                  585.17      1.66      1.53
  10                   4.40      0.03      0.00
  11                 572.85      1.63      1.47
  12                 542.24      1.54      1.33
  13                 528.16      1.50      1.26
  14                 438.02      1.24      0.89
  15                 394.02      1.12      0.73
  16                  88.39      0.56      0.33
  17                 -16.23      0.10      0.01
  18                  45.26      0.29      0.10
  19                  11.44      0.03      0.00
  20                  -6.16      0.02      0.00
  21                  25.52      0.16      0.03
  22                  42.24      0.12      0.01
  23                  12.81      0.08      0.01
  24                  -1.27      0.01      0.00
  25                  12.71      0.08      0.01
  26                 398.80      1.13      0.75
  27                 408.48      1.16      0.78
  28                 391.76      1.11      0.73
  29                 354.80      1.01      0.60
  30                  31.68      0.09      0.01
  31                  16.72      0.11      0.02
  32                   9.68      0.06      0.01
  34                   1.52      0.01      0.00
  35                   2.64      0.02      0.00
  36                   1.32      0.01      0.00
  37                 -21.12      0.13      0.02
  38                   2.00      0.01      0.00
  39                   2.64      0.02      0.00
  40                   0.64      0.00      0.00
  41                   0.88      0.01      0.00
   
   
  Node Results at 53:00:00 hrs:
  --------------------------------------------------------
                     Demand      Head  Pressure  Fluoride
  Node                  gpm        ft       psi      mg/L
  --------------------------------------------------------
  1                 -638.85    314.41    114.57      0.82
  2                    6.48    310.09     91.03      0.82
  3                   11.34    309.53    108.12      0.79
  4                    6.48    309.12    107.94      0.72
  5                    6.48    309.07     90.59      0.76
  6                    4.05    307.11     78.91      0.75
  7                    3.24    302.73     61.85      0.64
  8                    7.29    302.73     83.51      0.09
  9                   11.34    302.11     52.91      0.64
  10                   4.05    302.73     74.84      0.09
  11                  28.17    301.07     50.29      0.64
  12                  12.96    298.48     38.34      0.63
  13                   1.62    297.70     38.00      0.62
  14                   1.62    297.33     42.17      0.55
  15                   1.62    297.10     46.41      0.47
  16                  16.20    297.20     63.78      0.32
  17                  16.20    297.14     50.76      0.09
  18                  16.20    297.14     85.42      0.60
  19                   4.05    297.15     63.76      0.77
  20                  15.39    297.32     55.17      0.09
  21                  12.96    297.31     63.83      0.76
  22                   8.10    297.31     42.16      0.77
  23                   6.48    296.39     28.77      0.34
  24                   8.91    296.88     46.31      0.38
  25                   4.86    296.15     28.66      0.33
  27                   6.48    296.15     71.99      0.77
  28                   0.00    296.14     80.66      0.31
  29                   5.67    296.14     80.66      0.77
  30                   2.43    296.14     71.99      0.95
  31                  13.77    296.15     46.00      0.09
  32                  13.77    297.14     81.09      0.77
  33                   1.22    297.31     50.83      0.10
  34                   1.22    297.31     46.50      0.93
  35                   0.00    296.14     80.66      0.88
  36                   0.81    296.14     80.66      0.93
  26                 377.40    296.02     26.44      0.73  Tank
   
   
  Link Results at 53:00:00 hrs:
  ----------------------------------------------
                       Flow  Velocity  Headloss
  Link                  gpm       fps   /1000ft
  ----------------------------------------------
  1                  638.85      1.81      1.80
  2                  530.56      1.51      1.27
  3                  101.81      0.65      0.43
  4                   90.47      0.58      0.35
  5                   83.99      0.24      0.04
  6                  608.07      1.72      1.64
  7                  604.02      1.71      1.62
  8                   11.34      0.03      0.00
  9                  589.44      1.67      1.55
  10                   4.05      0.03      0.00
  11                 578.10      1.64      1.49
  12                 549.93      1.56      1.36
  13                 536.97      1.52      1.30
  14                 446.51      1.27      0.93
  15                 406.01      1.15      0.78
  16                  88.83      0.57      0.34
  17                 -22.41      0.14      0.03
  18                  46.58      0.30      0.10
  19                   7.97      0.02      0.00
  20                  -8.23      0.02      0.00
  21                  26.05      0.17      0.03
  22                  38.88      0.11      0.01
  23                  11.79      0.08      0.01
  24                  -1.17      0.01      0.00
  25                  11.70      0.07      0.01
  26                 417.90      1.19      0.82
  27                 426.81      1.21      0.85
  28                 411.42      1.17      0.80
  29                 377.40      1.07      0.68
  30                  29.16      0.08      0.01
  31                  15.39      0.10      0.01
  32                   8.91      0.06      0.00
  34                   1.39      0.01      0.00
  35                   2.43      0.02      0.00
  36                   1.22      0.01      0.00
  37                 -22.00      0.14      0.03
  38                   1.85      0.01      0.00
  39                   2.43      0.02      0.00
  40                   0.58      0.00      0.00
  41                   0.81      0.01      0.00
   
   
  Node Results at 54:00:00 hrs:
  --------------------------------------------------------
                     Demand      Head  Pressure  Fluoride
  Node                  gpm        ft       psi      mg/L
  --------------------------------------------------------
  1                 -638.85    315.95    115.24      0.92
  2                    6.48    311.64     91.70      0.92
  3                   11.34    311.07    108.79      0.89
  4                    6.48    310.66    108.61      0.82
  5                    6.48    310.62     91.26      0.89
  6                    4.05    308.65     79.57      0.89
  7                    3.24    304.28     62.51      0.76
  8                    7.29    304.27     84.18      0.09
  9                   11.34    303.66     53.58      0.76
  10                   4.05    304.27     75.51      0.20
  11                  28.17    302.61     50.96      0.76
  12                  12.96    300.02     39.01      0.75
  13                   1.62    299.24     38.67      0.74
  14                   1.62    298.87     42.84      0.71
  15                   1.62    298.64     47.07      0.68
  16                  16.20    298.74     64.45      0.63
  17                  16.20    298.68     51.42      0.33
  18                  16.20    298.68     86.09      0.63
  19                   4.05    298.69     64.43      0.09
  20                  15.39    298.86     55.84      0.09
  21                  12.96    298.85     64.50      0.79
  22                   8.10    298.85     42.83      0.77
  23                   6.48    297.94     29.44      0.64
  24                   8.91    298.43     46.98      0.65
  25                   4.86    297.70     29.33      0.64
  27                   6.48    297.69     72.66      0.09
  28                   0.00    297.69     81.32      0.84
  29                   5.67    297.69     81.32      0.77
  30                   2.43    297.69     72.66      0.95
  31                  13.77    297.69     46.66      0.12
  32                  13.77    298.68     81.75      0.77
  33                   1.22    298.85     51.50      0.84
  34                   1.22    298.85     47.16      0.93
  35                   0.00    297.69     81.32      0.38
  36                   0.81    297.69     81.32      0.93
  26                 377.40    297.56     27.11      0.73  Tank
   
   
  Link Results at 54:00:00 hrs:
  ----------------------------------------------
                       Flow  Velocity  Headloss
  Link                  gpm       fps   /1000ft
  ----------------------------------------------
  1                  638.85      1.81      1.80
  2                  530.56      1.51      1.27
  3                  101.81      0.65      0.43
  4                   90.47      0.58      0.35
  5                   83.99      0.24      0.04
  6                  608.07      1.72      1.64
  7                  604.02      1.71      1.62
  8                   11.34      0.03      0.00
  9                  589.44      1.67      1.55
  10                   4.05      0.03      0.00
  11                 578.10      1.64      1.49
  12                 549.93      1.56      1.36
  13                 536.97      1.52      1.30
  14                 446.51      1.27      0.93
  15                 406.01      1.15      0.78
  16                  88.83      0.57      0.34
  17                 -22.41      0.14      0.03
  18                  46.58      0.30      0.10
  19                   7.97      0.02      0.00
  20                  -8.23      0.02      0.00
  21                  26.05      0.17      0.03
  22                  38.88      0.11      0.01
  23                  11.79      0.08      0.01
  24                  -1.17      0.01      0.00
  25                  11.70      0.07      0.01
  26                 417.90      1.19      0.82
  27                 426.81      1.21      0.85
  28                 411.42      1.17      0.80
  29                 377.40      1.07      0.68
  30                  29.16      0.08      0.01
  31                  15.39      0.10      0.01
  32                   8.91      0.06      0.00
  34                   1.39      0.01      0.00
  35                   2.43      0.02      0.00
  36                   1.22      0.01      0.00
  37                 -22.00      0.14      0.03
  38                   1.85      0.01      0.00
  39                   2.43      0.02      0.00
  40                   0.58      0.00      0.00
  41                   0.81      0.01      0.00
   
   
  Node Results at 55:00:00 hrs:
  --------------------------------------------------------
                     Demand      Head  Pressure  Fluoride
  Node                  gpm        ft       psi      mg/L
  --------------------------------------------------------
  1                 -666.62    317.29    115.82      1.00
  2                   10.08    312.62     92.13      1.00
  3                   17.64    311.99    109.19      0.98
  4                   10.08    311.58    109.01      0.92
  5                   10.08    311.54     91.66      0.98
  6                    6.30    309.51     79.95      0.97
  7                    5.04    305.02     62.84      0.89
  8                   11.34    305.02     84.50      0.09
  9                   17.64    304.40     53.90      0.89
  10                   6.30    305.02     75.83      0.84
  11                  43.82    303.37     51.29      0.89
  12                  20.16    300.97     39.42      0.89
  13                   2.52    300.27     39.11      0.87
  14                   2.52    299.94     43.30      0.83
  15                   2.52    299.76     47.56      0.76
  16                  25.20    299.78     64.90      0.75
  17                  25.20    299.74     51.88      0.64
  18                  25.20    299.73     86.54      0.63
  19                   6.30    299.74     64.88      0.26
  20                  23.94    299.91     56.29      0.31
  21                  20.16    299.89     64.95      0.79
  22                  12.60    299.89     43.28      0.77
  23                  10.08    299.31     30.03      0.72
  24                  13.86    299.62     47.50      0.73
  25                   7.56    299.17     29.97      0.72
  27                  10.08    299.15     73.29      0.12
  28                   0.00    299.15     81.96      0.84
  29                   8.82    299.15     81.96      0.77
  30                   3.78    299.15     73.29      0.35
  31                  21.42    299.16     47.30      0.33
  32                  21.42    299.73     82.21      0.09
  33                   1.89    299.89     51.95      0.84
  34                   1.89    299.89     47.61      0.93
  35                   0.00    299.15     81.96      0.35
  36                   1.26    299.15     81.96      0.93
  26                 259.92    299.10     27.78      0.73  Tank
   
   
  Link Results at 55:00:00 hrs:
  ----------------------------------------------
                       Flow  Velocity  Headloss
  Link                  gpm       fps   /1000ft
  ----------------------------------------------
  1                  666.62      1.89      1.94
  2                  548.36      1.56      1.35
  3                  108.18      0.69      0.48
  4                   90.54      0.58      0.35
  5                   80.46      0.23      0.04
  6                  618.74      1.76      1.69
  7                  612.44      1.74      1.66
  8                   17.64      0.05      0.00
  9                  589.76      1.67      1.55
  10                   6.30      0.04      0.00
  11                 572.12      1.62      1.46
  12                 528.30      1.50      1.26
  13                 508.14      1.44      1.18
  14                 418.27      1.19      0.82
  15                 355.27      1.01      0.61
  16                  87.35      0.56      0.33
  17                  15.97      0.10      0.01
  18                  38.76      0.25      0.07
  19                  29.52      0.08      0.01
  20                   4.32      0.01      0.00
  21                  23.40      0.15      0.03
  22                  60.48      0.17      0.02
  23                  18.34      0.12      0.02
  24                  -1.82      0.01      0.00
  25                  18.20      0.12      0.02
  26                 322.92      0.92      0.51
  27                 336.78      0.96      0.55
  28                 312.84      0.89      0.48
  29                 259.92      0.74      0.34
  30                  45.36      0.13      0.01
  31                  23.94      0.15      0.03
  32                  13.86      0.09      0.01
  34                   2.17      0.01      0.00
  35                   3.78      0.02      0.00
  36                   1.89      0.01      0.00
  37                 -17.10      0.11      0.02
  38                   2.87      0.02      0.00
  39                   3.78      0.02      0.00
  40                   0.91      0.01      0.00
  41                   1.26      0.01      0.00
   
  Analysis ended Fri Oct 13 13:50:30 2017
