  Page 1                                    Tue Jan 22 11:23:06 2013

  ******************************************************************
  *                           E P A N E T                          *
  *                   Hydraulic and Water Quality                  *
  *                   Analysis for Pipe Networks                   *
  *                         Version 2.00.12                        *
  ******************************************************************
  
  Analysis begun Tue Jan 22 11:23:06 2013

   
  Hydraulic Status:
  -----------------------------------------------------------------------
     0:00:00: Balanced after 5 trials
     0:00:00: Reservoir River is emptying
     0:00:00: Reservoir Lake is closed
     0:00:00: Tank 1 is filling at 13.10 ft
     0:00:00: Tank 2 is emptying at 23.50 ft
     0:00:00: Tank 3 is filling at 29.00 ft
   
     1:00:00: Pump 10 changed by timer control
     1:00:00: Balanced after 7 trials
     1:00:00: Reservoir Lake is emptying
     1:00:00: Pump 10 changed from closed to open
   
     2:00:00: Balanced after 3 trials
     2:00:00: Tank 2 is filling at 20.90 ft
   
     3:00:00: Balanced after 2 trials
   
     4:00:00: Balanced after 3 trials
   
     4:13:33: Pump 335 changed by Tank 1 control
     4:13:33: Pipe 330 changed by Tank 1 control
     4:13:33: Balanced after 4 trials
     4:13:33: Pipe 330 changed from closed to open
     4:13:33: Pump 335 changed from open to closed
   
     5:00:00: Balanced after 3 trials
     5:00:00: Tank 3 is emptying at 34.30 ft
   
     6:00:00: Balanced after 3 trials
     6:00:00: Tank 3 is filling at 34.12 ft
   
     7:00:00: Balanced after 3 trials
   
     8:00:00: Balanced after 2 trials
   
     9:00:00: Balanced after 3 trials
     9:00:00: Tank 3 is emptying at 35.15 ft
   
    10:00:00: Balanced after 2 trials
    10:00:00: Tank 1 is emptying at 22.20 ft
   
    11:00:00: Balanced after 3 trials
    11:00:00: Tank 2 is emptying at 27.70 ft
   
    12:00:00: Balanced after 2 trials
    12:00:00: Tank 2 is filling at 27.64 ft
   
    13:00:00: Balanced after 3 trials
    13:00:00: Tank 1 is filling at 21.73 ft
   
    14:00:00: Balanced after 3 trials
   
    15:00:00: Pump 10 changed by timer control
    15:00:00: Balanced after 5 trials
    15:00:00: Reservoir Lake is closed
    15:00:00: Tank 1 is emptying at 21.98 ft
    15:00:00: Tank 2 is emptying at 28.20 ft
    15:00:00: Pump 10 changed from open to closed
   
    16:00:00: Balanced after 3 trials
   
    17:00:00: Balanced after 2 trials
   
    18:00:00: Balanced after 3 trials
   
    19:00:00: Balanced after 2 trials
   
    20:00:00: Balanced after 3 trials
   
    21:00:00: Balanced after 2 trials
   
    21:19:39: Pump 335 changed by Tank 1 control
    21:19:39: Pipe 330 changed by Tank 1 control
    21:19:39: Balanced after 5 trials
    21:19:39: Tank 1 is filling at 17.10 ft
    21:19:39: Tank 3 is filling at 29.68 ft
    21:19:39: Pipe 330 changed from open to closed
    21:19:39: Pump 335 changed from closed to open
   
    22:00:00: Balanced after 3 trials
    22:00:00: Tank 1 is emptying at 17.30 ft
   
    23:00:00: Balanced after 3 trials
   
    24:00:00: Balanced after 4 trials
    24:00:00: Tank 1 is filling at 15.79 ft
   
  Analysis ended Tue Jan 22 11:23:18 2013
