  Page 1                                    Fri Mar 23 14:42:19 2018

  ******************************************************************
  *                           E P A N E T                          *
  *                   Hydraulic and Water Quality                  *
  *                   Analysis for Pipe Networks                   *
  *                         Version 2.00.12                        *
  ******************************************************************
  
   Model exported from AQUIS on 2011-09-09 20:45:25 - C:\Epanet3-CLE\Epa
   
      Input Data File ................... 2PRVs-aquis.inp
      Number of Junctions................ 6
      Number of Reservoirs............... 1
      Number of Tanks ................... 0
      Number of Pipes ................... 5
      Number of Pumps ................... 0
      Number of Valves .................. 2
      Headloss Formula .................. Hazen-Williams
      Hydraulic Timestep ................ 1.00 hrs
      Hydraulic Accuracy ................ 0.001000
      Status Check Frequency ............ 2
      Maximum Trials Checked ............ 10
      Damping Limit Threshold ........... 0.000000
      Maximum Trials .................... 200
      Quality Analysis .................. None
      Specific Gravity .................. 1.00
      Relative Kinematic Viscosity ...... 1.00
      Relative Chemical Diffusivity ..... 1.00
      Demand Multiplier ................. 1.00
      Total Duration .................... 0.00 hrs
      Reporting Criteria:
         No Nodes
         No Links
   
  Analysis begun Fri Mar 23 14:42:19 2018

  Analysis ended Fri Mar 23 14:42:19 2018
