  Page 1                                    Fri Mar 23 14:48:38 2018

  ******************************************************************
  *                           E P A N E T                          *
  *                   Hydraulic and Water Quality                  *
  *                   Analysis for Pipe Networks                   *
  *                         Version 2.00.12                        *
  ******************************************************************
  
  Analysis begun Fri Mar 23 14:48:38 2018

  WARNING: Negative pressures at 0:00:00 hrs.
  
  Analysis ended Fri Mar 23 14:48:38 2018
