  Page 1                                    Fri Mar 23 14:48:34 2018

  ******************************************************************
  *                           E P A N E T                          *
  *                   Hydraulic and Water Quality                  *
  *                   Analysis for Pipe Networks                   *
  *                         Version 2.00.12                        *
  ******************************************************************
  
  Analysis begun Fri Mar 23 14:48:34 2018

   
  Hydraulic Status:
  -----------------------------------------------------------------------
     0:00:00: Balancing the network:
              Trial  1: relative flow change = 0.599514
              Trial  2: relative flow change = 0.586701
              Trial  3: relative flow change = 0.052868
              PRV 12 switched from active to open
              PRV 13 switched from active to open
              Trial  4: relative flow change = 0.041194
              Trial  5: relative flow change = 0.020306
              Trial  6: relative flow change = 0.011794
              Trial  7: relative flow change = 0.007513
              Trial  8: relative flow change = 0.004786
              Trial  9: relative flow change = 0.003051
              Trial 10: relative flow change = 0.001946
              Trial 11: relative flow change = 0.001241
              Trial 12: relative flow change = 0.000792
     0:00:00: Balanced after 12 trials
     0:00:00: Reservoir 1 is emptying
     0:00:00: PRV 12 open
     0:00:00: PRV 13 open
   
  Analysis ended Fri Mar 23 14:48:34 2018
