  Page 1                                    Thu Mar 22 17:13:07 2018

  ******************************************************************
  *                           E P A N E T                          *
  *                   Hydraulic and Water Quality                  *
  *                   Analysis for Pipe Networks                   *
  *                         Version 2.00.12                        *
  ******************************************************************
  
  Analysis begun Thu Mar 22 17:13:07 2018

   
  Hydraulic Status:
  -----------------------------------------------------------------------
     0:00:00: Balancing the network:
              Trial  1: relative flow change = 0.763338
              Trial  2: relative flow change = 0.090158
              CV 113p switched from open to closed
              Trial  3: relative flow change = 0.014114
              Trial  4: relative flow change = 0.000056
     0:00:00: Balanced after 4 trials
     0:00:00: Reservoir 9 is emptying
     0:00:00: Tank 2 is filling at 120.00 ft
     0:00:00: CV 113p closed
   
  Analysis ended Thu Mar 22 17:13:07 2018
