  Page 1                                    Fri Mar 23 14:48:33 2018

  ******************************************************************
  *                           E P A N E T                          *
  *                   Hydraulic and Water Quality                  *
  *                   Analysis for Pipe Networks                   *
  *                         Version 2.00.12                        *
  ******************************************************************
  
   
      Input Data File ................... 5fcvs.inp
      Number of Junctions................ 31
      Number of Reservoirs............... 2
      Number of Tanks ................... 0
      Number of Pipes ................... 25
      Number of Pumps ................... 5
      Number of Valves .................. 5
      Headloss Formula .................. Darcy-Weisbach
      Hydraulic Timestep ................ 1.00 hrs
      Hydraulic Accuracy ................ 0.001000
      Status Check Frequency ............ 2
      Maximum Trials Checked ............ 10
      Damping Limit Threshold ........... 0.000000
      Maximum Trials .................... 40
      Quality Analysis .................. None
      Specific Gravity .................. 1.00
      Relative Kinematic Viscosity ...... 1.00
      Relative Chemical Diffusivity ..... 1.00
      Demand Multiplier ................. 1.00
      Total Duration .................... 0.00 hrs
      Reporting Criteria:
         No Nodes
         No Links
   
  Analysis begun Fri Mar 23 14:48:33 2018

  WARNING: FCV 46 open but cannot deliver flow at 0:00:00 hrs.
  WARNING: FCV 47 open but cannot deliver flow at 0:00:00 hrs.
  
  Analysis ended Fri Mar 23 14:48:33 2018
