  Page 1                                    Fri Mar 23 14:42:20 2018

  ******************************************************************
  *                           E P A N E T                          *
  *                   Hydraulic and Water Quality                  *
  *                   Analysis for Pipe Networks                   *
  *                         Version 2.00.12                        *
  ******************************************************************
  
  Analysis begun Fri Mar 23 14:42:20 2018

   
  Hydraulic Status:
  -----------------------------------------------------------------------
     0:00:00: Balancing the network:
              Trial  1: relative flow change = 1.094712
              FCV 47 switched from active to open
              Trial  2: relative flow change = 1.078480
              Pump 29 switched from open to closed
              Trial  3: relative flow change = 0.279262
              Pump 29 switched from closed to open
              Trial  4: relative flow change = 0.264348
              Trial  5: relative flow change = 0.000008
     0:00:00: Balanced after 5 trials
     0:00:00: Reservoir 1 is emptying
     0:00:00: Reservoir 32 is emptying
     0:00:00: FCV 47 open but cannot deliver flow
   
  WARNING: Negative pressures at 0:00:00 hrs.
  WARNING: FCV 47 open but cannot deliver flow at 0:00:00 hrs.
  
  Analysis ended Fri Mar 23 14:42:20 2018
