  Page 1                                    Fri Mar 23 14:48:35 2018

  ******************************************************************
  *                           E P A N E T                          *
  *                   Hydraulic and Water Quality                  *
  *                   Analysis for Pipe Networks                   *
  *                         Version 2.00.12                        *
  ******************************************************************
  
  Analysis begun Fri Mar 23 14:48:35 2018

   
  Hydraulic Status:
  -----------------------------------------------------------------------
     0:00:00: Balancing the network:
              Trial  1: relative flow change = 0.655886
              Trial  2: relative flow change = 0.090419
              Trial  3: relative flow change = 0.017845
              Trial  4: relative flow change = 0.002265
              Trial  5: relative flow change = 0.000041
     0:00:00: Balanced after 5 trials
     0:00:00: Reservoir 9 is emptying
     0:00:00: Tank 2 is filling at 120.00 ft
   
  Analysis ended Fri Mar 23 14:48:35 2018
