  Page 1                                    Fri Mar 23 14:48:39 2018

  ******************************************************************
  *                           E P A N E T                          *
  *                   Hydraulic and Water Quality                  *
  *                   Analysis for Pipe Networks                   *
  *                         Version 2.00.12                        *
  ******************************************************************
  
  Analysis begun Fri Mar 23 14:48:39 2018

   
  Hydraulic Status:
  -----------------------------------------------------------------------
     0:00:00: Balancing the network:
              Trial  1: relative flow change = 6.551358
              Trial  2: relative flow change = 1.197136
              Trial  3: relative flow change = 1.229316
              Trial  4: relative flow change = 1.319952
              Trial  5: relative flow change = 1.668231
              Trial  6: relative flow change = 1.147804
              Trial  7: relative flow change = 0.303981
              Trial  8: relative flow change = 0.013634
              Trial  9: relative flow change = 0.000030
     0:00:00: Balanced after 9 trials
     0:00:00: Reservoir B is emptying
     0:00:00: Reservoir A is emptying
   
  Analysis ended Fri Mar 23 14:48:39 2018
