  Page 1                                    Fri Oct 13 13:50:30 2017

  ******************************************************************
  *                           E P A N E T                          *
  *                   Hydraulic and Water Quality                  *
  *                   Analysis for Pipe Networks                   *
  *                         Version 2.00.12                        *
  ******************************************************************
  
  Analysis begun Fri Oct 13 13:50:30 2017

   
  Hydraulic Status:
  -----------------------------------------------------------------------
     0:00:00: Balanced after 5 trials
     0:00:00: Reservoir River is emptying
     0:00:00: Reservoir Lake is closed
     0:00:00: Tank 1 is filling at 13.10 ft
     0:00:00: Tank 2 is emptying at 23.50 ft
     0:00:00: Tank 3 is filling at 29.00 ft
   
     1:00:00: Pump 10 changed by timer control
     1:00:00: Balanced after 7 trials
     1:00:00: Reservoir Lake is emptying
     1:00:00: Pump 10 changed from closed to open
   
     2:00:00: Balanced after 3 trials
     2:00:00: Tank 2 is filling at 20.90 ft
   
     3:00:00: Balanced after 2 trials
   
     4:00:00: Balanced after 3 trials
   
     4:13:33: Pump 335 changed by Tank 1 control
     4:13:33: Pipe 330 changed by Tank 1 control
     4:13:33: Balanced after 4 trials
     4:13:33: Pipe 330 changed from closed to open
     4:13:33: Pump 335 changed from open to closed
   
     5:00:00: Balanced after 3 trials
     5:00:00: Tank 3 is emptying at 34.30 ft
   
     6:00:00: Balanced after 3 trials
     6:00:00: Tank 3 is filling at 34.12 ft
   
     7:00:00: Balanced after 3 trials
   
     8:00:00: Balanced after 2 trials
   
     9:00:00: Balanced after 3 trials
     9:00:00: Tank 3 is emptying at 35.15 ft
   
    10:00:00: Balanced after 2 trials
    10:00:00: Tank 1 is emptying at 22.20 ft
   
    11:00:00: Balanced after 3 trials
    11:00:00: Tank 2 is emptying at 27.70 ft
   
    12:00:00: Balanced after 2 trials
    12:00:00: Tank 2 is filling at 27.64 ft
   
    13:00:00: Balanced after 3 trials
    13:00:00: Tank 1 is filling at 21.73 ft
   
    14:00:00: Balanced after 3 trials
   
    15:00:00: Pump 10 changed by timer control
    15:00:00: Balanced after 5 trials
    15:00:00: Reservoir Lake is closed
    15:00:00: Tank 1 is emptying at 21.98 ft
    15:00:00: Tank 2 is emptying at 28.20 ft
    15:00:00: Pump 10 changed from open to closed
   
    16:00:00: Balanced after 3 trials
   
    17:00:00: Balanced after 2 trials
   
    18:00:00: Balanced after 3 trials
   
    19:00:00: Balanced after 2 trials
   
    20:00:00: Balanced after 3 trials
   
    21:00:00: Balanced after 2 trials
   
    21:19:39: Pump 335 changed by Tank 1 control
    21:19:39: Pipe 330 changed by Tank 1 control
    21:19:39: Balanced after 5 trials
    21:19:39: Tank 1 is filling at 17.10 ft
    21:19:39: Tank 3 is filling at 29.68 ft
    21:19:39: Pipe 330 changed from open to closed
    21:19:39: Pump 335 changed from closed to open
   
    22:00:00: Balanced after 3 trials
    22:00:00: Tank 1 is emptying at 17.30 ft
   
    23:00:00: Balanced after 3 trials
   
    24:00:00: Balanced after 4 trials
    24:00:00: Tank 1 is filling at 15.79 ft
   
   
  Node Results at 0:00:00 hrs:
  --------------------------------------------------------
                     Demand      Head  Pressure    % from
  Node                  gpm        ft       psi      Lake
  --------------------------------------------------------
  10                   0.00    145.52     -0.64      0.00
  15                 620.00    125.81     40.65      0.00
  20                   0.00    158.00     12.57      0.00
  35                1637.00    145.74     57.73      0.00
  40                   0.00    145.00      5.68      0.00
  50                   0.00    140.00     10.18      0.00
  60                   0.00    209.01     90.56      0.00
  601                  0.00    302.45    131.05      0.00
  61                   0.00    302.45    131.05      0.00
  101                254.53    145.52     44.86      0.00
  103                178.49    145.49     44.41      0.00
  105                181.40    146.83     51.27      0.00
  107                 73.22    146.82     54.09      0.00
  109                310.08    145.49     54.25      0.00
  111                190.20    146.11     58.98      0.00
  113                 26.81    146.15     62.46      0.00
  115                 69.81    146.92     57.59      0.00
  117                157.73    150.03     59.12      0.00
  119                236.01    157.55     67.40      0.00
  120                  0.00    155.12     67.21      0.00
  121                 55.78    161.01     70.63      0.00
  123                  0.00    165.47     66.93      0.00
  125                 61.10    160.43     64.75      0.00
  127                 23.66    158.74     44.52      0.00
  129                  0.00    158.73     46.68      0.00
  131                 57.28    158.71     66.17      0.00
  139                  7.89    153.08     52.90      0.00
  141                 13.20    149.06     62.85      0.00
  143                  8.31    138.25     61.85      0.00
  145                 37.02    150.28     64.68      0.00
  147                 11.46    151.20     57.50      0.00
  149                 36.27    151.60     58.75      0.00
  151                193.60    155.44     52.84      0.00
  153                 59.19    155.54     38.71      0.00
  157                 69.40    155.11     61.53      0.00
  159                 55.37    151.76     63.16      0.00
  161                 21.17    149.48     63.04      0.00
  163                 12.62    149.02     62.41      0.00
  164                  0.00    149.02     62.41      0.00
  166                  3.48    149.02     65.44      0.00
  167                 19.51    147.15     65.93      0.00
  169                  0.00    147.15     65.93      0.00
  171                 52.72    146.07     65.03      0.00
  173                  0.00    146.05     65.02      0.00
  177                 77.95    145.73     59.68      0.00
  179                  0.00    145.72     59.67      0.00
  181                  0.00    145.75     59.69      0.00
  183                  0.00    145.72     58.37      0.00
  184                  0.00    144.49     55.68      0.00
  185                 34.37    145.08     55.93      0.00
  187                  0.00    145.78     57.75      0.00
  189                144.61    146.09     61.57      0.00
  191                109.75    146.05     52.45      0.00
  193                 95.56    146.15     55.53      0.00
  195                  0.00    146.22     56.64      0.00
  197                 22.83    146.06     53.32      0.00
  199                159.89    140.83     61.89      0.00
  201                 59.78    140.10     60.66      0.00
  203               4439.00    139.93     59.77      0.00
  204                  0.00    145.53     53.96      0.00
  205                 87.58    140.80     51.91      0.00
  206                  0.00    139.89     60.18      0.00
  207                 92.98    140.10     56.80      0.00
  208                  0.00    139.67     53.58      0.00
  209                  1.17    139.27     61.21      0.00
  211                 11.62    139.14     57.25      0.00
  213                 18.68    139.07     57.23      0.00
  215                123.53    138.88     57.14      0.00
  217                 32.45    138.86     57.57      0.00
  219                 55.37    138.85     58.43      0.00
  225                 30.55    138.85     56.70      0.00
  229                 86.00    138.98     55.67      0.00
  231                 22.08    138.97     58.05      0.00
  237                 20.92    139.08     54.20      0.00
  239                 59.78    139.08     54.63      0.00
  241                  0.00    139.09     54.63      0.00
  243                  5.82    139.08     54.20      0.00
  247                 94.31    139.09     52.47      0.00
  249                  0.00    139.09     52.47      0.00
  251                 32.37    139.10     47.27      0.00
  253                 73.06    139.22     44.72      0.00
  255                 54.12    139.27     48.65      0.00
  257                  0.00    152.00     58.49      0.00
  259                  0.00    151.56     54.84      0.00
  261                  0.00    149.98     64.99      0.00
  263                  0.00    149.82     64.92      0.00
  265                  0.00    147.75     64.02      0.00
  267                  0.00    146.17     54.24      0.00
  269                  0.00    146.49     63.48      0.00
  271                  0.00    145.84     60.59      0.00
  273                  0.00    140.80     57.54      0.00
  275                  0.00    140.10     56.37      0.00
  River           -13157.88    220.00      0.00      0.00  Reservoir
  Lake                 0.00    167.00      0.00    100.00  Reservoir
  1                  460.32    145.00      5.68      0.00  Tank
  2                 -329.21    140.00     10.18      0.00  Tank
  3                 2246.30    158.00     12.57      0.00  Tank
   
   
  Link Results at 0:00:00 hrs:
  ----------------------------------------------
                       Flow  Velocity  Headloss
  Link                  gpm       fps   /1000ft
  ----------------------------------------------
  20               -2246.30      0.09      0.00
  40                -460.32      0.02      0.00
  50                 329.21      0.01      0.00
  60               13157.88      9.33      8.93
  101                  0.00      0.00      0.00
  103                168.06      0.27      0.02
  105               -422.59      1.20      0.51
  107                 32.30      0.09      0.00
  109                -10.43      0.02      0.00
  111               -320.51      0.91      0.31
  112                498.35      1.41      0.70
  113                -80.63      0.23      0.02
  114                124.37      0.79      0.38
  115                -40.92      0.26      0.05
  116                 16.93      0.05      0.00
  117                636.29      1.81      1.10
  119               -733.46      2.08      1.43
  120               1159.13      3.29      3.33
  121               1039.29      2.95      2.72
  122                368.34      2.35      2.87
  123               9821.71      4.46      1.73
  125              13157.88      5.97      2.97
  129               2912.04      2.07      0.63
  131               2634.65      1.87      0.52
  133              -2246.30      2.29      0.94
  135                364.69      0.26      0.01
  137                 57.28      0.09      0.00
  145                307.41      1.96      2.06
  147                299.51      1.91      1.96
  149               -628.31      4.01      7.72
  151               -620.00      3.96      7.54
  153                341.99      0.97      0.35
  155                379.02      1.08      0.42
  159               -390.47      1.11      0.44
  161               -426.75      2.72      3.77
  163               -157.09      0.45      0.08
  169                216.28      1.38      1.07
  171                463.26      1.31      0.61
  173               7963.30      3.61      1.17
  175               7893.91      3.58      1.15
  177               7838.54      3.56      1.14
  179               7565.72      3.43      1.07
  180                  3.48      0.01      0.00
  181                  3.48      0.01      0.00
  183               7341.33      3.33      1.01
  185                -19.51      0.12      0.01
  186                340.16      2.17      2.48
  187               6708.97      3.05      0.85
  189               4690.03      2.13      0.44
  191              -1966.23      1.39      0.30
  193              -1637.00      1.16      0.22
  195                473.47      1.34      0.63
  197                395.52      1.12      0.45
  199                -64.80      0.18      0.02
  201               -460.32      1.31      0.60
  202                541.82      3.46      5.87
  203                236.03      1.51      1.26
  204                541.82      1.54      0.81
  205                340.16      0.96      0.34
  207                300.83      0.85      0.27
  209                160.66      1.03      0.62
  211                612.84      1.74      1.02
  213                179.50      0.51      0.11
  215                137.51      0.39      0.06
  217               -243.80      0.69      0.19
  219               -251.65      0.71      0.20
  221                251.65      1.61      1.42
  223                 45.44      0.13      0.01
  225                 68.28      0.19      0.02
  229               4690.03      3.33      1.30
  231               4419.40      3.13      1.17
  233               4439.00      3.15      1.37
  235                110.74      0.31      0.04
  237                453.73      1.29      0.59
  238                392.62      1.11      0.45
  239                 31.87      0.09      0.00
  240                392.62      1.11      0.45
  241                392.62      1.11      0.45
  243                391.45      0.62      0.11
  245                298.08      0.48      0.07
  247                241.91      0.39      0.05
  249                118.38      0.19      0.01
  251                 55.37      0.12      0.01
  257                 30.55      0.09      0.00
  261                 37.49      0.24      0.04
  263                 22.08      0.06      0.00
  269                 81.76      0.23      0.02
  271                 70.60      0.45      0.13
  273                 -9.76      0.03      0.00
  275                -22.78      0.06      0.00
  277                  5.82      0.02      0.00
  281                -28.60      0.12      0.01
  283                -46.75      0.13      0.01
  285                  2.62      0.01      0.00
  287               -125.53      0.51      0.13
  289                329.21      1.34      0.79
  291                 73.06      0.30      0.05
  293                 76.50      0.49      0.16
  295                -44.13      0.13      0.01
  297                488.19      3.12      4.84
  299                234.55      1.50      1.25
  301                234.55      1.50      1.25
  303                253.64      1.62      1.44
  305                148.10      0.42      0.07
  307                401.74      1.14      0.47
  309                208.28      1.33      1.00
  311                -70.78      0.20      0.02
  313                468.60      1.33      0.62
  315              -2110.47      1.50      0.35
  317                111.25      0.71      0.31
  319                 -0.51      0.00      0.00
  321               7549.61      3.43      1.06
  323                -79.37      0.23      0.02
  325                144.25      0.92      0.51
  329              13157.88      5.97      3.01
  330                  0.00      0.00      0.00
  333                 -0.00      0.00      0.00
  10                   0.00      0.00      0.00  Pump
  335              13157.88      0.00    -93.44  Pump
   
   
  Node Results at 1:00:00 hrs:
  --------------------------------------------------------
                     Demand      Head  Pressure    % from
  Node                  gpm        ft       psi      Lake
  --------------------------------------------------------
  10                   0.00    239.70     40.17      0.00
  15                 620.00    126.77     41.07      0.00
  20                   0.00    158.85     12.94      0.00
  35                1706.00    148.70     59.02      0.00
  40                   0.00    145.65      5.96      0.00
  50                   0.00    138.66      9.60      0.00
  60                   0.00    209.16     90.63      0.00
  601                  0.00    303.45    131.48      0.00
  61                   0.00    303.45    131.48      0.00
  101                368.50    172.80     56.68      0.00
  103                258.41    170.18     55.11      0.00
  105                262.62    163.49     58.49      0.00
  107                106.00    162.76     60.99      0.00
  109                448.92    164.39     62.43      0.00
  111                275.36    157.94     64.10      0.00
  113                 38.82    155.99     66.72      0.00
  115                101.07    158.76     62.73      0.00
  117                228.36    160.57     63.68      0.00
  119                341.69    161.00     68.89      0.00
  120                  0.00    161.00     69.76      0.00
  121                 80.76    163.91     71.89      0.00
  123                  0.00    168.30     68.16      0.00
  125                 88.46    162.96     65.84      0.00
  127                 34.26    160.15     45.13      0.00
  129                  0.00    160.13     47.29      0.00
  131                 82.93    160.09     66.77      0.00
  139                 11.43    154.24     53.40      0.00
  141                 19.11    150.14     63.32      0.00
  143                 12.03    139.21     62.27      0.00
  145                 53.60    151.40     65.17      0.00
  147                 16.59    152.43     58.03      0.00
  149                 52.52    152.88     59.31      0.00
  151                280.29    157.50     53.73      0.00
  153                 85.69    157.58     39.59      0.00
  157                100.47    158.53     63.01      0.00
  159                 80.16    155.16     64.63      0.00
  161                 30.65    152.88     64.51      0.00
  163                 18.27    152.40     63.87      0.00
  164                  0.00    152.40     63.87      0.00
  166                  5.04    152.40     66.90      0.00
  167                 28.25    150.40     67.33      0.00
  169                  0.00    150.40     67.33      0.00
  171                 76.32    149.09     66.33      0.00
  173                  0.00    149.06     66.32      0.00
  177                112.85    148.67     60.95      0.00
  179                  0.00    148.65     60.94      0.00
  181                  0.00    148.71     60.97      0.00
  183                  0.00    148.77     59.70      0.00
  184                  0.00    147.69     57.06      0.00
  185                 49.76    148.50     57.41      0.00
  187                  0.00    150.17     59.65      0.00
  189                209.36    150.11     63.31      0.00
  191                158.89    152.75     55.36      0.00
  193                138.34    152.77     58.40      0.00
  195                  0.00    152.77     59.48      0.00
  197                 33.06    154.17     56.84      0.00
  199                231.48    142.74     62.71      0.00
  201                 86.54    141.88     61.43      0.00
  203               4531.00    141.71     60.54      0.00
  204                  0.00    149.58     55.71      0.00
  205                126.80    142.64     52.71      0.00
  206                  0.00    140.85     60.60      0.00
  207                134.62    141.50     57.41      0.00
  208                  0.00    140.12     53.78      0.00
  209                  1.69    138.84     61.03      0.00
  211                 16.82    138.42     56.94      0.00
  213                 27.04    138.27     56.88      0.00
  215                178.85    137.89     56.71      0.00
  217                 46.99    137.85     57.13      0.00
  219                 80.16    137.82     57.99      0.00
  225                 44.23    137.83     56.26      0.00
  229                124.51    137.87     55.19      0.00
  231                 31.97    137.86     57.57      0.00
  237                 30.28    137.98     53.72      0.00
  239                 86.54    137.94     54.14      0.00
  241                  0.00    137.94     54.14      0.00
  243                  8.42    137.94     53.70      0.00
  247                136.54    137.94     51.97      0.00
  249                  0.00    137.94     51.97      0.00
  251                 46.87    137.94     46.77      0.00
  253                105.77    137.91     44.16      0.00
  255                 78.36    138.01     48.10      0.00
  257                  0.00    161.04     62.41      0.00
  259                  0.00    161.08     58.96      0.00
  261                  0.00    161.02     69.77      0.00
  263                  0.00    161.25     69.87      0.00
  265                  0.00    151.07     65.46      0.00
  267                  0.00    151.32     56.47      0.00
  269                  0.00    150.16     65.06      0.00
  271                  0.00    148.82     61.88      0.00
  273                  0.00    142.65     58.34      0.00
  275                  0.00    141.86     57.13      0.00
  River           -13062.03    220.00      0.00      0.00  Reservoir
  Lake             -3435.20    167.00      0.00    100.00  Reservoir
  1                  996.56    145.65      5.96      0.00  Tank
  2                 -307.71    138.66      9.60      0.00  Tank
  3                 3038.04    158.85     12.94      0.00  Tank
   
   
  Link Results at 1:00:00 hrs:
  ----------------------------------------------
                       Flow  Velocity  Headloss
  Link                  gpm       fps   /1000ft
  ----------------------------------------------
  20               -3038.04      0.13      0.00
  40                -996.56      0.04      0.00
  50                 307.71      0.01      0.00
  60               13062.03      9.26      8.81
  101               3435.20      4.33      4.71
  103               1846.16      2.95      1.94
  105               1220.53      3.46      3.67
  107                413.09      1.17      0.49
  109               1587.75      2.53      1.47
  111               1138.84      3.23      3.22
  112                503.62      1.43      0.71
  113                655.73      1.86      1.16
  114                248.60      1.59      1.39
  115                307.09      1.96      2.05
  116                865.52      2.46      1.94
  117               -544.83      1.55      0.82
  119               -546.21      1.55      0.83
  120                -21.77      0.06      0.00
  121                274.75      0.78      0.23
  122                251.51      1.61      1.42
  123               8943.91      4.06      1.45
  125              13062.03      5.93      2.93
  129               3785.85      2.68      1.02
  131               3469.58      2.46      0.87
  133              -3038.04      3.10      1.65
  135                397.28      0.28      0.02
  137                 82.93      0.13      0.01
  145                314.34      2.01      2.14
  147                302.92      1.93      2.00
  149               -632.03      4.03      7.81
  151               -620.00      3.96      7.54
  153                348.22      0.99      0.36
  155                401.82      1.14      0.47
  159               -418.41      1.19      0.50
  161               -470.93      3.01      4.53
  163               -142.12      0.40      0.07
  169                227.81      1.45      1.18
  171                609.10      1.73      1.01
  173               8014.88      3.64      1.19
  175               7914.41      3.59      1.16
  177               7834.25      3.56      1.14
  179               7762.99      3.52      1.12
  180                  5.04      0.01      0.00
  181                  5.04      0.01      0.00
  183               7817.51      3.55      1.13
  185                -28.25      0.18      0.02
  186                542.85      3.46      5.89
  187               7431.51      3.37      1.03
  189               5205.59      2.36      0.53
  191              -2149.60      1.52      0.36
  193              -1706.00      1.21      0.23
  195                656.05      1.86      1.16
  197                543.20      1.54      0.82
  199               -453.37      1.29      0.59
  201               -996.56      2.83      2.52
  202                642.17      4.10      8.04
  203                149.08      0.95      0.54
  204                642.17      1.82      1.12
  205                542.85      1.54      0.82
  207                602.45      1.71      0.99
  209                -65.68      0.42      0.12
  211                357.75      1.01      0.38
  213                608.54      1.73      1.01
  215                600.83      1.70      0.99
  217                -89.12      0.25      0.03
  219                -40.61      0.12      0.01
  221                 40.61      0.26      0.05
  223                678.31      1.92      1.24
  225                711.36      2.02      1.35
  229               5205.59      3.69      1.58
  231               4783.02      3.39      1.35
  233               4531.00      3.21      1.42
  235                191.09      0.54      0.12
  237                587.22      1.67      0.95
  238                737.33      2.09      1.44
  239                284.72      0.81      0.25
  240                737.33      2.09      1.44
  241                737.33      2.09      1.44
  243                735.64      1.17      0.35
  245                460.16      0.73      0.15
  247                350.23      0.56      0.09
  249                171.38      0.27      0.02
  251                 80.16      0.17      0.01
  257                 44.23      0.13      0.01
  261                 82.88      0.53      0.18
  263                 31.97      0.09      0.00
  269                258.66      0.73      0.21
  271                 73.60      0.47      0.15
  273                154.79      0.44      0.08
  275                 30.78      0.09      0.00
  277                  8.42      0.02      0.00
  281                 22.36      0.09      0.01
  283                 37.46      0.11      0.01
  285                -38.38      0.11      0.01
  287                -75.79      0.31      0.05
  289                307.71      1.26      0.69
  291                105.77      0.43      0.10
  293                 47.79      0.31      0.07
  295                 -0.92      0.00      0.00
  297                -45.01      0.29      0.06
  299                -66.18      0.42      0.12
  301                -66.18      0.42      0.12
  303                 21.17      0.14      0.01
  305               -499.82      1.42      0.70
  307               -478.65      1.36      0.65
  309                -77.84      0.50      0.16
  311                678.67      1.93      1.24
  313                145.30      0.41      0.07
  315              -2362.05      1.68      0.43
  317                119.24      0.76      0.36
  319                 71.85      0.20      0.02
  321               7739.67      3.51      1.11
  323                165.48      0.47      0.09
  325                212.45      1.36      1.04
  329              13062.03      5.93      2.97
  330                  0.00      0.00      0.00
  333                 -0.00      0.00      0.00
  10                3435.20      0.00    -72.70  Pump
  335              13062.03      0.00    -94.29  Pump
   
   
  Node Results at 2:00:00 hrs:
  --------------------------------------------------------
                     Demand      Head  Pressure    % from
  Node                  gpm        ft       psi      Lake
  --------------------------------------------------------
  10                   0.00    241.37     40.89    100.00
  15                 620.00    130.44     42.65      0.00
  20                   0.00    160.01     13.44      0.00
  35                1719.00    151.70     60.32      0.00
  40                   0.00    147.06      6.57      0.00
  50                   0.00    137.40      9.06      0.00
  60                   0.00    209.30     90.69      0.00
  601                  0.00    304.38    131.89      0.00
  61                   0.00    304.38    131.89      0.00
  101                277.33    178.21     59.02      7.12
  103                194.47    175.75     57.52      0.00
  105                197.64    168.17     60.52      0.00
  107                 79.77    167.47     63.03      0.00
  109                337.84    169.97     64.85      0.00
  111                207.23    162.31     65.99      0.00
  113                 29.21    160.04     68.48      0.00
  115                 76.07    162.94     64.53      0.00
  117                171.86    164.13     65.22      0.00
  119                257.15    164.00     70.20      0.00
  120                  0.00    164.18     71.14      0.00
  121                 60.78    166.61     73.06      0.00
  123                  0.00    170.95     69.31      0.00
  125                 66.58    165.43     66.92      0.00
  127                 25.78    161.80     45.84      0.00
  129                  0.00    161.79     48.00      0.00
  131                 62.42    161.76     67.49      0.00
  139                  8.60    157.04     54.61      0.00
  141                 14.38    153.71     64.87      0.00
  143                  9.05    142.87     63.86      0.00
  145                 40.34    155.14     66.79      0.00
  147                 12.48    156.22     59.67      0.00
  149                 39.52    156.68     60.96      0.00
  151                210.94    161.19     55.33      0.00
  153                 64.49    161.26     41.19      0.00
  157                 75.61    161.59     64.34      0.00
  159                 60.33    158.28     65.98      0.00
  161                 23.07    156.03     65.87      0.00
  163                 13.75    155.54     65.23      0.00
  164                  0.00    155.54     65.23      0.00
  166                  3.80    155.54     68.26      0.00
  167                 21.26    153.50     68.68      0.00
  169                  0.00    153.50     68.68      0.00
  171                 57.44    152.14     67.66      0.00
  173                  0.00    152.12     67.65      0.00
  177                 84.93    151.66     62.25      0.00
  179                  0.00    151.62     62.23      0.00
  181                  0.00    151.71     62.27      0.00
  183                  0.00    151.78     61.00      0.00
  184                  0.00    150.78     58.40      0.00
  185                 37.45    151.59     58.75      0.00
  187                  0.00    153.39     61.05      0.00
  189                157.56    153.30     64.69      0.00
  191                119.57    156.32     56.90      0.00
  193                104.11    156.32     59.93      0.00
  195                  0.00    156.31     61.01      0.00
  197                 24.88    157.99     58.49      0.00
  199                174.21    145.76     64.03      0.00
  201                 65.13    144.90     62.74      0.00
  203               4511.00    144.73     61.84      0.00
  204                  0.00    152.76     57.09      0.00
  205                 95.43    145.63     54.00      0.00
  206                  0.00    143.29     61.65      0.00
  207                101.31    144.26     58.61      0.00
  208                  0.00    142.18     54.67      0.00
  209                  1.27    140.26     61.64      0.00
  211                 12.66    139.62     57.46      0.00
  213                 20.35    139.49     57.41      0.00
  215                134.60    139.26     57.31      0.00
  217                 35.36    139.24     57.73      0.00
  219                 60.33    139.22     58.59      0.00
  225                 33.29    139.23     56.86      0.00
  229                 93.70    138.32     55.38      0.00
  231                 24.06    138.31     57.77      0.00
  237                 22.79    138.30     53.86      0.00
  239                 65.13    137.96     54.15      0.00
  241                  0.00    137.96     54.15      0.00
  243                  6.34    137.96     53.71      0.00
  247                102.75    137.88     51.94      0.00
  249                  0.00    137.88     51.94      0.00
  251                 35.27    137.79     46.71      0.00
  253                 79.60    137.47     43.97      0.00
  255                 58.97    137.53     47.89      0.00
  257                  0.00    164.52     63.92      0.00
  259                  0.00    164.60     60.49      0.00
  261                  0.00    164.62     71.33      0.00
  263                  0.00    164.93     71.46      0.00
  265                  0.00    154.19     66.81      0.00
  267                  0.00    154.63     57.90      0.00
  269                  0.00    153.32     66.43      0.00
  271                  0.00    151.84     63.19      0.00
  273                  0.00    145.65     59.65      0.00
  275                  0.00    144.84     58.43      0.00
  River           -12972.12    220.00      0.00      0.00  Reservoir
  Lake             -3330.25    167.00      0.00    100.00  Reservoir
  1                 1249.69    147.06      6.57      0.00  Tank
  2                  132.71    137.40      9.06      0.00  Tank
  3                 3619.73    160.01     13.44      0.00  Tank
   
   
  Link Results at 2:00:00 hrs:
  ----------------------------------------------
                       Flow  Velocity  Headloss
  Link                  gpm       fps   /1000ft
  ----------------------------------------------
  20               -3619.73      0.15      0.00
  40               -1249.69      0.05      0.00
  50                -132.71      0.01      0.00
  60               12972.12      9.20      8.70
  101               3330.25      4.20      4.45
  103               1781.95      2.84      1.82
  105               1270.97      3.61      3.95
  107                408.15      1.16      0.48
  109               1587.48      2.53      1.47
  111               1249.64      3.54      3.83
  112                434.96      1.23      0.54
  113                711.21      2.02      1.35
  114                254.36      1.62      1.45
  115                328.38      2.10      2.32
  116                936.35      2.66      2.24
  117               -665.18      1.89      1.19
  119               -437.00      1.24      0.55
  120               -284.45      0.81      0.25
  121                 89.36      0.25      0.03
  122                228.14      1.46      1.18
  123               8430.48      3.83      1.30
  125              12972.12      5.89      2.89
  129               4252.72      3.02      1.26
  131               3987.51      2.83      1.12
  133              -3619.73      3.70      2.28
  135                342.00      0.24      0.01
  137                 62.42      0.10      0.00
  145                279.58      1.78      1.72
  147                270.98      1.73      1.63
  149               -629.05      4.02      7.74
  151               -620.00      3.96      7.54
  153                372.45      1.06      0.41
  155                412.79      1.17      0.49
  159               -425.27      1.21      0.52
  161               -464.80      2.97      4.42
  163               -134.15      0.38      0.06
  169                198.64      1.27      0.92
  171                541.59      1.54      0.81
  173               7916.19      3.59      1.16
  175               7840.58      3.56      1.14
  177               7780.25      3.53      1.12
  179               7824.07      3.55      1.13
  180                  3.80      0.01      0.00
  181                  3.80      0.01      0.00
  183               7911.57      3.59      1.16
  185                -21.26      0.14      0.01
  186                565.05      3.61      6.35
  187               7579.96      3.44      1.07
  189               5218.04      2.37      0.54
  191              -2304.48      1.63      0.41
  193              -1719.00      1.22      0.24
  195                809.88      2.30      1.72
  197                724.95      2.06      1.40
  199               -524.74      1.49      0.77
  201              -1249.69      3.55      3.83
  202                648.21      4.14      8.18
  203                120.61      0.77      0.36
  204                648.21      1.84      1.14
  205                565.05      1.60      0.88
  207                645.35      1.83      1.13
  209                -84.93      0.54      0.19
  211                310.35      0.88      0.29
  213                649.98      1.84      1.14
  215                632.03      1.79      1.08
  217                -28.28      0.08      0.00
  219                 66.88      0.19      0.02
  221                -66.88      0.43      0.12
  223                741.27      2.10      1.46
  225                766.15      2.17      1.55
  229               5218.04      3.70      1.59
  231               4825.72      3.42      1.37
  233               4511.00      3.20      1.41
  235                218.11      0.62      0.15
  237                649.94      1.84      1.14
  238                919.18      2.61      2.17
  239                370.55      1.05      0.40
  240                919.18      2.61      2.17
  241                919.18      2.61      2.17
  243                917.91      1.46      0.53
  245                431.87      0.69      0.13
  247                263.57      0.42      0.05
  249                128.98      0.21      0.01
  251                 60.33      0.13      0.01
  257                 33.29      0.09      0.00
  261                147.95      0.94      0.53
  263                 24.06      0.07      0.00
  269                473.37      1.34      0.63
  271                -30.18      0.19      0.03
  273                480.77      1.36      0.65
  275                159.60      0.45      0.08
  277                  6.34      0.02      0.00
  281                153.26      0.63      0.19
  283                256.04      0.73      0.20
  285               -125.43      0.36      0.05
  287                175.94      0.72      0.25
  289               -132.71      0.54      0.15
  291                 79.60      0.33      0.06
  293                -95.33      0.61      0.24
  295                130.61      0.37      0.06
  297               -145.68      0.93      0.52
  299                -95.49      0.61      0.24
  301                -95.49      0.61      0.24
  303                -50.19      0.32      0.07
  305               -519.50      1.47      0.75
  307               -569.68      1.62      0.89
  309               -105.05      0.67      0.28
  311                737.08      2.09      1.44
  313                 85.96      0.24      0.03
  315              -2528.88      1.79      0.48
  317                120.96      0.77      0.37
  319                 97.15      0.28      0.03
  321               7806.52      3.54      1.13
  323                249.59      0.71      0.19
  325                224.40      1.43      1.15
  329              12972.12      5.89      2.93
  330                  0.00      0.00      0.00
  333                 -0.00      0.00      0.00
  10                3330.25      0.00    -74.37  Pump
  335              12972.12      0.00    -95.08  Pump
   
   
  Node Results at 3:00:00 hrs:
  --------------------------------------------------------
                     Demand      Head  Pressure    % from
  Node                  gpm        ft       psi      Lake
  --------------------------------------------------------
  10                   0.00    241.72     41.04    100.00
  15                 620.00    131.79     43.24      0.00
  20                   0.00    161.38     14.03      0.00
  35                1719.00    152.98     60.87      0.00
  40                   0.00    148.83      7.33      0.00
  50                   0.00    137.94      9.29      0.00
  60                   0.00    209.36     90.72      0.00
  601                  0.00    304.81    132.07      0.00
  61                   0.00    304.81    132.07      0.00
  101                273.53    179.34     59.51    100.00
  103                191.81    176.92     58.03    100.00
  105                194.93    169.41     61.06    100.00
  107                 78.68    168.71     63.57    100.00
  109                333.22    171.19     65.38    100.00
  111                204.39    163.57     66.54     74.47
  113                 28.81    161.31     69.03     29.92
  115                 75.02    164.20     65.08     42.58
  117                169.50    165.40     65.77     85.32
  119                253.63    165.27     70.75      0.00
  120                  0.00    165.45     71.69      0.00
  121                 59.95    167.87     73.61      0.00
  123                  0.00    172.19     69.84      0.00
  125                 65.66    166.72     67.47      0.00
  127                 25.43    163.14     46.42      0.00
  129                  0.00    163.13     48.59      0.00
  131                 61.56    163.11     68.07      0.00
  139                  8.48    158.39     55.20      0.00
  141                 14.18    155.06     65.45      0.00
  143                  8.93    144.22     64.44      0.00
  145                 39.79    156.48     67.37      0.00
  147                 12.31    157.56     60.26      0.00
  149                 38.98    158.02     61.54      0.00
  151                208.05    162.50     55.90      0.00
  153                 63.60    162.57     41.76      0.00
  157                 74.58    162.86     64.89      0.00
  159                 59.50    159.54     66.53      0.00
  161                 22.75    157.29     66.42      0.00
  163                 13.56    156.80     65.78      0.00
  164                  0.00    156.80     65.78      0.00
  166                  3.74    156.80     68.81      0.00
  167                 20.97    154.76     69.22      0.00
  169                  0.00    154.76     69.22      0.00
  171                 56.65    153.40     68.20      0.00
  173                  0.00    153.37     68.19      0.00
  177                 83.76    152.94     62.80      0.00
  179                  0.00    152.90     62.79      0.00
  181                  0.00    152.98     62.82      0.00
  183                  0.00    153.06     61.55      0.00
  184                  0.00    152.01     58.93      0.00
  185                 36.94    152.85     59.30      0.00
  187                  0.00    154.66     61.60      0.00
  189                155.40    154.56     65.24      0.00
  191                117.94    157.59     57.45      0.03
  193                102.69    157.59     60.48      0.90
  195                  0.00    157.58     61.56      0.00
  197                 24.54    159.26     59.04      3.73
  199                171.82    146.84     64.49      0.00
  201                 64.24    145.95     63.20      0.00
  203               4582.00    145.78     62.30      0.00
  204                  0.00    154.02     57.64      0.00
  205                 94.12    146.71     54.47      0.00
  206                  0.00    144.27     62.08      0.00
  207                 99.92    145.29     59.05      0.00
  208                  0.00    143.12     55.08      0.00
  209                  1.25    141.12     62.01      0.00
  211                 12.48    140.45     57.82      0.00
  213                 20.07    140.31     57.76      0.00
  215                132.75    140.09     57.67      0.00
  217                 34.88    140.07     58.09      0.00
  219                 59.50    140.06     58.95      0.00
  225                 32.83    140.06     57.22      0.00
  229                 92.42    139.06     55.70      0.00
  231                 23.73    139.05     58.09      0.00
  237                 22.48    139.02     54.17      0.00
  239                 64.24    138.66     54.45      0.00
  241                  0.00    138.65     54.45      0.00
  243                  6.25    138.65     54.01      0.00
  247                101.35    138.56     52.24      0.00
  249                  0.00    138.56     52.24      0.00
  251                 34.79    138.46     47.00      0.00
  253                 78.51    138.08     44.23      0.00
  255                 58.16    138.14     48.16      0.00
  257                  0.00    165.78     64.47      0.00
  259                  0.00    165.86     61.04      0.00
  261                  0.00    165.88     71.88    100.00
  263                  0.00    166.19     72.01    100.00
  265                  0.00    155.44     67.35      0.00
  267                  0.00    155.90     58.45      0.00
  269                  0.00    154.58     66.98      0.00
  271                  0.00    153.10     63.74      0.00
  273                  0.00    146.73     60.11      0.00
  275                  0.00    145.89     58.88      0.00
  River           -12929.88    220.00      0.00      0.00  Reservoir
  Lake             -3307.91    167.00      0.00    100.00  Reservoir
  1                 1176.83    148.83      7.33      0.00  Tank
  2                  164.68    137.94      9.29      0.00  Tank
  3                 3586.00    161.38     14.03      0.00  Tank
   
   
  Link Results at 3:00:00 hrs:
  ----------------------------------------------
                       Flow  Velocity  Headloss
  Link                  gpm       fps   /1000ft
  ----------------------------------------------
  20               -3586.00      0.15      0.00
  40               -1176.83      0.05      0.00
  50                -164.68      0.01      0.00
  60               12929.88      9.17      8.64
  101               3307.91      4.17      4.39
  103               1770.64      2.83      1.80
  105               1263.74      3.58      3.91
  107                406.20      1.15      0.48
  109               1578.84      2.52      1.45
  111               1245.62      3.53      3.81
  112                435.35      1.24      0.54
  113                710.77      2.02      1.35
  114                254.28      1.62      1.45
  115                327.52      2.09      2.31
  116                936.24      2.66      2.24
  117               -662.60      1.88      1.18
  119               -437.14      1.24      0.55
  120               -283.99      0.81      0.25
  121                 89.07      0.25      0.03
  122                228.03      1.46      1.18
  123               8425.90      3.82      1.30
  125              12929.88      5.87      2.88
  129               4216.00      2.99      1.24
  131               3952.43      2.80      1.10
  133              -3586.00      3.66      2.24
  135                341.00      0.24      0.01
  137                 61.56      0.10      0.00
  145                279.44      1.78      1.72
  147                270.95      1.73      1.63
  149               -628.93      4.01      7.74
  151               -620.00      3.96      7.54
  153                372.16      1.06      0.41
  155                411.94      1.17      0.49
  159               -424.26      1.20      0.52
  161               -463.24      2.96      4.39
  163               -134.31      0.38      0.06
  169                197.91      1.26      0.91
  171                536.98      1.52      0.80
  173               7919.28      3.59      1.16
  175               7844.70      3.56      1.14
  177               7785.20      3.53      1.12
  179               7830.43      3.55      1.14
  180                  3.74      0.01      0.00
  181                  3.74      0.01      0.00
  183               7919.10      3.59      1.16
  185                -20.97      0.13      0.01
  186                566.46      3.62      6.38
  187               7593.28      3.45      1.07
  189               5293.89      2.40      0.55
  191              -2242.74      1.59      0.39
  193              -1719.00      1.22      0.24
  195                747.76      2.12      1.48
  197                664.00      1.88      1.19
  199               -512.83      1.45      0.74
  201              -1176.83      3.34      3.43
  202                658.59      4.20      8.43
  203                129.06      0.82      0.41
  204                658.59      1.87      1.17
  205                566.46      1.61      0.88
  207                641.90      1.82      1.12
  209                -84.29      0.54      0.19
  211                304.86      0.86      0.28
  213                650.76      1.85      1.14
  215                632.17      1.79      1.08
  217                -27.42      0.08      0.00
  219                 67.98      0.19      0.02
  221                -67.98      0.43      0.13
  223                741.27      2.10      1.46
  225                765.81      2.17      1.55
  229               5293.89      3.75      1.63
  231               4901.49      3.48      1.41
  233               4582.00      3.25      1.45
  235                220.58      0.63      0.15
  237                662.06      1.88      1.18
  238                940.38      2.67      2.26
  239                378.24      1.07      0.42
  240                940.38      2.67      2.26
  241                940.38      2.67      2.26
  243                939.13      1.50      0.56
  245                433.96      0.69      0.13
  247                259.96      0.41      0.05
  249                127.21      0.20      0.01
  251                 59.50      0.12      0.01
  257                 32.83      0.09      0.00
  261                153.92      0.98      0.57
  263                 23.73      0.07      0.00
  269                492.68      1.40      0.68
  271                -37.77      0.24      0.04
  273                507.98      1.44      0.72
  275                170.07      0.48      0.10
  277                  6.25      0.02      0.00
  281                163.82      0.67      0.22
  283                273.67      0.78      0.23
  285               -132.45      0.38      0.06
  287                194.92      0.80      0.30
  289               -164.68      0.67      0.22
  291                 78.51      0.32      0.06
  293               -106.43      0.68      0.29
  295                141.22      0.40      0.07
  297               -145.03      0.93      0.51
  299                -95.14      0.61      0.23
  301                -95.14      0.61      0.23
  303                -49.89      0.32      0.07
  305               -517.57      1.47      0.75
  307               -567.46      1.61      0.89
  309               -105.98      0.68      0.29
  311                738.15      2.09      1.44
  313                 80.84      0.23      0.02
  315              -2466.76      1.75      0.46
  317                122.99      0.79      0.38
  319                 97.59      0.28      0.03
  321               7813.12      3.55      1.13
  323                255.25      0.72      0.20
  325                224.02      1.43      1.14
  329              12929.88      5.87      2.91
  330                  0.00      0.00      0.00
  333                 -0.00      0.00      0.00
  10                3307.91      0.00    -74.72  Pump
  335              12929.88      0.00    -95.45  Pump
   
   
  Node Results at 4:00:00 hrs:
  --------------------------------------------------------
                     Demand      Head  Pressure    % from
  Node                  gpm        ft       psi      Lake
  --------------------------------------------------------
  10                   0.00    244.31     42.16    100.00
  15                 620.00    136.89     45.45      0.00
  20                   0.00    162.74     14.62      0.00
  35                1791.00    157.83     62.97      0.00
  40                   0.00    150.49      8.05     16.76
  50                   0.00    138.61      9.58      0.00
  60                   0.00    209.57     90.81      0.00
  601                  0.00    306.26    132.70      0.00
  61                   0.00    306.26    132.70      0.00
  101                144.36    187.67     63.12    100.00
  103                101.23    185.48     61.74    100.00
  105                102.88    176.88     64.29    100.00
  107                 41.53    176.18     66.81    100.00
  109                175.86    179.80     69.11    100.00
  111                107.87    170.38     69.49     97.83
  113                 15.21    167.75     71.82     96.09
  115                 39.60    170.71     67.90     91.61
  117                 89.46    171.11     68.25     85.32
  119                133.86    169.89     72.74      0.78
  120                  0.00    170.71     73.97     26.11
  121                 31.64    172.05     75.42      0.00
  123                  0.00    176.28     71.62      0.00
  125                 34.66    170.49     69.11      0.00
  127                 13.42    165.42     47.41      0.00
  129                  0.00    165.42     49.58      0.00
  131                 32.49    165.41     69.07      0.00
  139                  4.48    162.28     56.88      0.00
  141                  7.49    160.03     67.61      0.00
  143                  4.71    149.33     66.65      0.00
  145                 21.00    161.75     69.66      0.00
  147                  6.50    162.94     62.59      0.00
  149                 20.57    163.43     63.88      0.00
  151                109.80    167.87     58.22      0.00
  153                 33.57    167.93     44.08      0.00
  157                 39.36    167.60     66.94      0.26
  159                 31.40    164.42     68.64      0.00
  161                 12.01    162.26     68.57      0.00
  163                  7.16    161.78     67.93      0.00
  164                  0.00    161.78     67.93      0.00
  166                  1.98    161.78     70.97      0.00
  167                 11.07    159.76     71.39      0.03
  169                  0.00    159.76     71.39      0.20
  171                 29.90    158.37     70.35      0.04
  173                  0.00    158.34     70.34      0.01
  177                 44.21    157.77     64.89      0.00
  179                  0.00    157.69     64.86     21.01
  181                  0.00    157.84     64.93      0.00
  183                  0.00    157.93     63.66     53.49
  184                  0.00    157.09     61.14     22.99
  185                 19.49    157.88     61.48     45.00
  187                  0.00    159.88     63.86     77.06
  189                 82.02    159.68     67.46     64.94
  191                 62.24    163.44     59.99     83.94
  193                 54.20    163.44     63.02     91.54
  195                  0.00    163.41     64.09     68.37
  197                 12.95    165.42     61.71     94.60
  199                 90.68    152.25     66.83      0.00
  201                 33.90    151.38     65.55      0.00
  203               4531.00    151.21     64.65      0.00
  204                  0.00    159.18     59.87     73.51
  205                 49.67    152.14     56.82      0.00
  206                  0.00    149.64     64.41      0.00
  207                 52.74    150.74     61.42      0.00
  208                  0.00    148.40     57.37      0.00
  209                  0.66    146.25     64.24      0.00
  211                  6.59    145.52     60.02      0.00
  213                 10.59    145.44     59.99      0.00
  215                 70.06    145.37     59.96      0.00
  217                 18.41    145.37     60.39      0.00
  219                 31.40    145.36     61.25      0.00
  225                 17.33    145.36     59.52      0.00
  229                 48.78    143.58     57.66      0.00
  231                 12.52    143.58     60.05      0.00
  237                 11.86    143.26     56.01      0.00
  239                 33.90    142.50     56.11      0.00
  241                  0.00    142.49     56.11      0.00
  243                  3.30    142.49     55.68      0.00
  247                 53.49    142.25     53.84      0.00
  249                  0.00    142.25     53.84      0.00
  251                 18.36    141.97     48.52      0.00
  253                 41.44    140.60     45.32      0.00
  255                 30.70    140.62     49.23      0.00
  257                  0.00    171.43     66.92     94.23
  259                  0.00    171.58     63.51    100.00
  261                  0.00    171.73     74.41    100.00
  263                  0.00    172.17     74.60    100.00
  265                  0.00    160.44     69.52      0.47
  267                  0.00    161.28     60.78     81.11
  269                  0.00    159.68     69.19      0.00
  271                  0.00    157.99     65.86      0.00
  273                  0.00    152.16     62.46      0.00
  275                  0.00    151.32     61.24      0.00
  River           -12789.79    220.00      0.00      0.00  Reservoir
  Lake             -3139.84    167.00      0.00    100.00  Reservoir
  1                 1600.38    150.49      8.05      0.00  Tank
  2                  569.30    138.61      9.58      0.00  Tank
  3                 4501.38    162.74     14.62      0.00  Tank
   
   
  Link Results at 4:00:00 hrs:
  ----------------------------------------------
                       Flow  Velocity  Headloss
  Link                  gpm       fps   /1000ft
  ----------------------------------------------
  20               -4501.38      0.19      0.00
  40               -1600.38      0.07      0.00
  50                -569.30      0.02      0.00
  60               12789.79      9.07      8.47
  101               3139.84      3.96      3.99
  103               1673.92      2.67      1.62
  105               1321.56      3.75      4.25
  107                405.13      1.15      0.48
  109               1572.68      2.51      1.44
  111               1396.82      3.96      4.71
  112                307.79      0.87      0.29
  113                771.15      2.19      1.57
  114                257.60      1.64      1.48
  115                363.60      2.32      2.80
  116               1013.54      2.88      2.60
  117               -813.55      2.31      1.73
  119               -241.38      0.68      0.18
  120               -648.27      1.84      1.14
  121               -261.84      0.74      0.21
  122                165.55      1.06      0.65
  123               7634.33      3.47      1.08
  125              12789.78      5.81      2.82
  129               4958.27      3.52      1.68
  131               4771.01      3.38      1.56
  133              -4501.38      4.60      3.41
  135                256.21      0.18      0.01
  137                 32.49      0.05      0.00
  145                223.72      1.43      1.14
  147                219.24      1.40      1.10
  149               -624.71      3.99      7.64
  151               -620.00      3.96      7.54
  153                412.96      1.17      0.49
  155                433.96      1.23      0.54
  159               -440.45      1.25      0.56
  161               -461.03      2.94      4.35
  163               -119.03      0.34      0.05
  169                152.60      0.97      0.56
  171                451.80      1.28      0.58
  173               7696.93      3.49      1.10
  175               7657.57      3.48      1.09
  177               7626.17      3.46      1.08
  179               7757.64      3.52      1.12
  180                  1.98      0.00      0.00
  181                  1.98      0.00      0.00
  183               7895.98      3.58      1.15
  185                -11.07      0.07      0.00
  186                597.56      3.81      7.04
  187               7686.00      3.49      1.10
  189               5101.70      2.32      0.51
  191              -2554.40      1.81      0.49
  193              -1791.00      1.27      0.25
  195               1004.12      2.85      2.55
  197                959.91      2.72      2.35
  199               -640.47      1.82      1.11
  201              -1600.38      4.54      6.06
  202                634.99      4.05      7.88
  203                 56.93      0.36      0.09
  204                634.99      1.80      1.09
  205                597.56      1.70      0.98
  207                697.40      1.98      1.30
  209               -125.57      0.80      0.39
  211                198.92      0.56      0.13
  213                723.13      2.05      1.39
  215                695.64      1.97      1.29
  217                 27.26      0.08      0.00
  219                143.48      0.41      0.07
  221               -143.48      0.92      0.50
  223                812.63      2.31      1.73
  225                825.58      2.34      1.78
  229               5101.70      3.62      1.52
  231               4815.58      3.42      1.37
  233               4531.00      3.21      1.42
  235                195.44      0.55      0.12
  237                658.42      1.87      1.17
  238                978.69      2.78      2.44
  239                373.01      1.06      0.41
  240                978.69      2.78      2.44
  241                978.69      2.78      2.44
  243                978.03      1.56      0.60
  245                337.90      0.54      0.08
  247                137.20      0.22      0.02
  249                 67.14      0.11      0.00
  251                 31.40      0.07      0.00
  257                 17.33      0.05      0.00
  261                190.11      1.21      0.84
  263                 12.52      0.04      0.00
  269                633.54      1.80      1.09
  271               -128.80      0.82      0.41
  273                750.48      2.13      1.49
  275                270.43      0.77      0.22
  277                  3.30      0.01      0.00
  281                267.13      1.09      0.53
  283                446.15      1.27      0.57
  285               -195.09      0.55      0.12
  287                408.73      1.67      1.17
  289               -569.30      2.33      2.17
  291                 41.44      0.17      0.02
  293               -232.70      1.49      1.23
  295                251.06      0.71      0.20
  297               -220.87      1.41      1.11
  299               -130.51      0.83      0.42
  301               -130.51      0.83      0.42
  303                -90.36      0.58      0.21
  305               -592.68      1.68      0.96
  307               -683.04      1.94      1.25
  309               -147.48      0.94      0.53
  311                843.13      2.39      1.85
  313                -41.80      0.12      0.01
  315              -2795.12      1.98      0.58
  317                122.34      0.78      0.37
  319                 73.10      0.21      0.02
  321               7748.50      3.52      1.11
  323                250.68      0.71      0.20
  325                240.72      1.54      1.31
  329              12789.78      5.81      2.86
  330                  0.00      0.00      0.00
  333                 -0.00      0.00      0.00
  10                3139.84      0.00    -77.31  Pump
  335              12789.79      0.00    -96.68  Pump
   
   
  Node Results at 5:00:00 hrs:
  --------------------------------------------------------
                     Demand      Head  Pressure    % from
  Node                  gpm        ft       psi      Lake
  --------------------------------------------------------
  10                   0.00    242.16     41.23    100.00
  15                 360.00    150.32     51.27      0.00
  20                   0.00    163.30     14.86      0.00
  35                1819.00    152.55     60.68      1.85
  40                   0.00    151.80      8.62     64.01
  50                   0.00    140.30     10.31      0.00
  60                   0.00    215.88     93.54      0.00
  601                  0.00    215.87     93.54      0.00
  61                   0.00    215.87     93.54      0.00
  101                174.75    180.76     60.12    100.00
  103                122.54    178.41     58.67    100.00
  105                124.54    169.25     60.99    100.00
  107                 50.27    168.53     63.49    100.00
  109                212.89    172.44     65.92    100.00
  111                130.58    162.97     66.28     99.65
  113                 18.41    160.66     68.75     98.75
  115                 47.93    163.14     64.62     97.00
  117                108.29    163.28     64.85    100.00
  119                162.04    161.67     69.19      9.43
  120                  0.00    162.62     70.46     88.23
  121                 38.30    163.24     71.60      0.00
  123               1219.00    164.46     66.50      0.00
  125                 41.95    163.24     65.97      0.00
  127                 16.25    163.26     46.48      0.00
  129                  0.00    163.26     48.64      0.00
  131                 39.33    163.25     68.13      0.00
  139                  5.42    160.67     56.19      0.00
  141                  9.06    158.83     67.09      0.00
  143                  5.70    154.87     69.05      0.00
  145                 25.42    159.20     68.55      0.00
  147                  7.87    159.49     61.09      0.37
  149                 24.90    159.62     62.23      1.04
  151                132.92    160.91     55.21      1.96
  153                 40.64    160.96     41.06      0.00
  157                 47.65    159.91     63.61      9.43
  159                 38.01    157.47     65.63      4.15
  161                 14.54    155.81     65.78      5.90
  163                  8.67    155.44     65.19      5.83
  164                  0.00    155.44     65.19      0.00
  166                  2.39    155.44     68.22      0.00
  167                 13.40    153.89     68.85      3.26
  169                  0.00    153.89     68.85      6.17
  171                 36.19    152.81     67.95      4.41
  173                  0.00    152.78     67.93      3.98
  177                 53.52    152.56     62.64      1.85
  179                  0.00    152.56     62.64     64.86
  181                  0.00    152.56     62.64      2.37
  183                  0.00    152.68     61.39     95.96
  184                  0.00    151.72     58.81     97.00
  185                 23.60    152.48     59.14     97.30
  187                  0.00    154.05     61.34     98.48
  189                 99.29    153.87     64.94     95.65
  191                 75.35    156.94     57.17     99.28
  193                 65.61    156.94     60.20     94.70
  195                  0.00    156.91     61.28     94.33
  197                 15.68    158.65     58.78     99.32
  199                109.77    146.96     64.55      1.76
  201                 41.04    146.13     63.27      1.64
  203               4582.00    145.95     62.37      1.51
  204                  0.00    153.50     57.41     98.41
  205                 60.13    146.92     54.56     71.24
  206                  0.00    145.20     62.48     26.20
  207                 63.84    145.85     59.30     32.71
  208                  0.00    144.45     55.66     13.53
  209                  0.80    143.15     62.89      1.47
  211                  7.98    142.72     58.81      0.00
  213                 12.82    142.65     58.78      0.00
  215                 84.81    142.55     58.73      0.00
  217                 22.28    142.54     59.16      0.00
  219                 38.01    142.53     60.03      0.00
  225                 20.98    142.54     58.29      0.00
  229                 59.05    141.71     56.85      0.00
  231                 15.16    141.71     59.24      0.00
  237                 14.36    141.64     55.31      0.00
  239                 41.04    141.32     55.60      0.00
  241                  0.00    141.32     55.60      0.00
  243                  3.99    141.32     55.17      0.00
  247                 64.75    141.23     53.39      0.00
  249                  0.00    141.23     53.39      0.00
  251                 22.23    141.13     48.15      0.00
  253                 50.16    140.70     45.37      0.00
  255                 37.16    140.73     49.28      0.00
  257                  0.00    163.49     63.48    100.00
  259                  0.00    163.66     60.08    100.00
  261                  0.00    163.89     71.01    100.00
  263                  0.00    164.34     71.21    100.00
  265                  0.00    154.42     66.91      6.35
  267                  0.00    155.16     58.13     94.58
  269                  0.00    153.86     66.67     49.39
  271                  0.00    152.63     63.54      3.92
  273                  0.00    146.92     60.20      0.16
  275                  0.00    146.11     58.98      0.59
  River            -7751.18    220.00      0.00      0.00  Reservoir
  Lake             -3279.91    167.00      0.00    100.00  Reservoir
  1                  475.63    151.80      8.62      0.64  Tank
  2                  248.17    140.30     10.31      0.00  Tank
  3                 -476.98    163.30     14.86      0.00  Tank
   
   
  Link Results at 5:00:00 hrs:
  ----------------------------------------------
                       Flow  Velocity  Headloss
  Link                  gpm       fps   /1000ft
  ----------------------------------------------
  20                 476.98      0.02      0.00
  40                -475.63      0.02      0.00
  50                -248.17      0.01      0.00
  60                7751.18      5.50      3.35
  101               3279.91      4.14      4.32
  103               1737.01      2.77      1.74
  105               1368.14      3.88      4.53
  107                411.17      1.17      0.49
  109               1614.46      2.58      1.52
  111               1401.58      3.98      4.74
  112                214.49      0.61      0.15
  113                719.45      2.04      1.38
  114                234.20      1.49      1.24
  115                360.91      2.30      2.77
  116                935.24      2.65      2.24
  117               -832.43      2.36      1.80
  119               -135.72      0.38      0.06
  120               -697.87      1.98      1.30
  121               -343.28      0.97      0.35
  122                109.44      0.70      0.30
  123               6418.73      2.91      0.79
  125               6532.18      2.96      0.81
  129                -34.29      0.02      0.00
  131               -219.80      0.16      0.01
  133                476.98      0.49      0.05
  135                240.93      0.17      0.01
  137                 39.33      0.06      0.00
  145                201.60      1.29      0.94
  147                196.18      1.25      0.89
  149               -365.70      2.33      2.84
  151               -360.00      2.30      2.75
  153                178.58      0.51      0.10
  155                204.00      0.58      0.13
  159               -211.87      0.60      0.14
  161               -236.77      1.51      1.27
  163               -102.92      0.29      0.04
  169                143.56      0.92      0.50
  171                266.78      0.76      0.22
  173               6687.77      3.04      0.85
  175               6640.13      3.01      0.84
  177               6602.11      3.00      0.83
  179               6727.57      3.05      0.86
  180                  2.39      0.00      0.00
  181                  2.39      0.00      0.00
  183               6854.98      3.11      0.89
  185                -13.40      0.09      0.01
  186                524.84      3.35      5.54
  187               6714.11      3.05      0.85
  189               4976.31      2.26      0.49
  191              -1701.61      1.21      0.23
  193              -1819.00      1.29      0.26
  195                 85.25      0.24      0.03
  197                 31.74      0.09      0.00
  199               -443.89      1.26      0.56
  201               -475.63      1.35      0.64
  202                624.23      3.98      7.63
  203                122.99      0.79      0.38
  204                624.23      1.77      1.06
  205                524.84      1.49      0.77
  207                566.89      1.61      0.89
  209               -120.90      0.77      0.36
  211                127.47      0.36      0.06
  213                645.74      1.83      1.13
  215                620.45      1.76      1.05
  217                 29.27      0.08      0.00
  219                140.00      0.40      0.07
  221               -140.00      0.89      0.48
  223                750.36      2.13      1.49
  225                766.03      2.17      1.55
  229               4976.31      3.53      1.46
  231               4741.14      3.36      1.33
  233               4582.00      3.25      1.45
  235                125.39      0.36      0.05
  237                568.64      1.61      0.89
  238                743.75      2.11      1.46
  239                238.96      0.68      0.18
  240                743.75      2.11      1.46
  241                743.75      2.11      1.46
  243                742.95      1.19      0.36
  245                310.29      0.50      0.07
  247                166.09      0.27      0.02
  249                 81.27      0.13      0.01
  251                 38.01      0.08      0.00
  257                 20.98      0.06      0.00
  261                131.37      0.84      0.43
  263                 15.16      0.04      0.00
  269                424.69      1.20      0.52
  271                -57.17      0.36      0.09
  273                467.50      1.33      0.62
  275                162.19      0.46      0.09
  277                  3.99      0.01      0.00
  281                158.20      0.65      0.20
  283                264.26      0.75      0.22
  285               -121.67      0.35      0.05
  287                215.12      0.88      0.36
  289               -248.17      1.01      0.47
  291                 50.16      0.20      0.02
  293               -120.37      0.77      0.36
  295                142.60      0.40      0.07
  297               -245.14      1.56      1.35
  299               -140.29      0.90      0.48
  301               -140.29      0.90      0.48
  303               -104.86      0.67      0.28
  305               -587.29      1.67      0.95
  307               -692.14      1.96      1.28
  309               -138.46      0.88      0.47
  311                758.91      2.15      1.52
  313                -75.17      0.21      0.02
  315              -1904.25      1.35      0.29
  317                120.86      0.77      0.36
  319                  4.54      0.01      0.00
  321               6716.51      3.05      0.86
  323                118.10      0.34      0.05
  325                202.65      1.29      0.95
  329               7751.18      3.52      1.13
  330               7751.18      3.52      1.13
  333               7751.18      3.52      1.13
  10                3279.91      0.00    -75.16  Pump
  335                  0.00      0.00      0.00  Pump
   
   
  Node Results at 6:00:00 hrs:
  --------------------------------------------------------
                     Demand      Head  Pressure    % from
  Node                  gpm        ft       psi      Lake
  --------------------------------------------------------
  10                   0.00    242.47     41.37    100.00
  15                 360.00    150.76     51.46      0.00
  20                   0.00    163.12     14.79      0.00
  35                1777.00    153.33     61.02     12.62
  40                   0.00    152.47      8.91     90.40
  50                   0.00    141.31     10.75      0.00
  60                   0.00    215.94     93.57      0.00
  601                  0.00    215.94     93.57      0.00
  61                   0.00    215.94     93.57      0.00
  101                161.46    181.75     60.55    100.00
  103                113.22    179.44     59.12    100.00
  105                115.06    170.18     61.39    100.00
  107                 46.44    169.46     63.90    100.00
  109                196.69    173.47     66.37    100.00
  111                120.65    163.82     66.65     99.47
  113                 17.01    161.49     69.11     98.89
  115                 44.28    163.96     64.98    100.00
  117                100.05    164.05     65.19    100.00
  119                149.71    162.21     69.42      8.27
  120                  0.00    163.25     70.74     84.32
  121                 35.39    163.72     71.81      0.00
  123                  0.00    165.36     66.89      0.00
  125                 38.76    163.59     66.12      0.00
  127                 15.01    163.25     46.47      0.00
  129                  0.00    163.24     48.64      0.00
  131                 36.34    163.24     68.13      0.00
  139                  5.01    160.92     56.29      0.00
  141                  8.37    159.26     67.28      0.00
  143                  5.27    155.30     69.24      0.00
  145                 23.49    159.67     68.75      0.26
  147                  7.27    159.98     61.30      2.72
  149                 23.01    160.12     62.45      5.64
  151                122.81    161.46     55.45      6.81
  153                 37.54    161.50     41.29      0.00
  157                 44.02    160.50     63.87      8.27
  159                 35.12    158.13     65.92      8.27
  161                 13.43    156.52     66.09     10.07
  163                  8.01    156.16     65.50     10.08
  164                  0.00    156.16     65.50      0.00
  166                  2.21    156.16     68.53      0.00
  167                 12.38    154.65     69.17     12.88
  169                  0.00    154.65     69.17     12.28
  171                 33.44    153.58     68.28     12.78
  173                  0.00    153.56     68.27     12.87
  177                 49.44    153.33     62.97     12.62
  179                  0.00    153.33     62.97     90.85
  181                  0.00    153.33     62.97     14.31
  183                  0.00    153.45     61.72     96.96
  184                  0.00    152.52     59.16     98.75
  185                 21.80    153.27     59.48     98.79
  187                  0.00    154.84     61.67     99.61
  189                 91.73    154.64     65.27     98.84
  191                 69.61    157.75     57.52     99.59
  193                 60.61    157.75     60.55     98.62
  195                  0.00    157.72     61.62     98.68
  197                 14.48    159.48     59.14     99.48
  199                101.42    147.83     64.92      8.35
  201                 37.92    147.01     63.65      7.61
  203               4572.00    146.83     62.76      7.57
  204                  0.00    154.29     57.75     99.63
  205                 55.56    147.80     54.94     96.96
  206                  0.00    146.14     62.89     67.28
  207                 58.98    146.77     59.70     68.13
  208                  0.00    145.43     56.08     65.39
  209                  0.74    144.21     63.35     61.27
  211                  7.37    143.79     59.27     54.67
  213                 11.85    143.73     59.24     15.36
  215                 78.36    143.64     59.21      0.00
  217                 20.59    143.64     59.64      0.00
  219                 35.12    143.63     60.50      0.00
  225                 19.38    143.63     58.77      0.00
  229                 54.55    142.82     57.33      0.00
  231                 14.01    142.81     59.71      0.00
  237                 13.27    142.73     55.78     21.90
  239                 37.92    142.42     56.08     10.54
  241                  0.00    142.42     56.08      3.97
  243                  3.69    142.42     55.64      0.00
  247                 59.82    142.32     53.87      0.26
  249                  0.00    142.32     53.87      1.39
  251                 20.54    142.22     48.63      0.00
  253                 46.34    141.78     45.83      0.00
  255                 34.33    141.80     49.74      0.00
  257                  0.00    164.21     63.79    100.00
  259                  0.00    164.39     60.40    100.00
  261                  0.00    164.66     71.35    100.00
  263                  0.00    165.12     71.54    100.00
  265                  0.00    155.16     67.23     11.97
[...]
  207                115.88    140.81     57.11      3.07
  208                  0.00    140.28     53.85      2.94
  209                  1.45    139.78     61.43      2.89
  211                 14.48    139.62     57.46     10.37
  213                 23.28    139.52     57.42     28.89
  215                153.96    139.23     57.30    100.00
  217                 40.45    139.20     57.72     77.43
  219                 69.00    139.18     58.57     72.45
  225                 38.08    139.19     56.84     72.08
  229                107.18    139.41     55.86     54.03
  231                 27.52    139.40     58.24     76.20
  237                 26.07    139.59     54.42     36.81
  239                 74.50    139.59     54.85     77.62
  241                  0.00    139.59     54.85     99.98
  243                  7.25    139.59     54.42      0.00
  247                117.53    139.61     52.69     32.81
  249                  0.00    139.61     52.69     77.90
  251                 40.35    139.64     47.50     22.76
  253                 91.05    139.91     45.02     30.35
  255                 67.45    139.99     48.96      0.00
  257                  0.00    151.74     58.38      0.00
  259                  0.00    151.30     54.72      0.00
  261                  0.00    149.68     64.86      0.00
  263                  0.00    149.51     64.78      0.00
  265                  0.00    148.70     64.43      0.00
  267                  0.00    147.00     54.60      0.00
  269                  0.00    147.51     63.92      0.00
  271                  0.00    147.13     61.15      0.00
  273                  0.00    141.57     57.88      2.97
  275                  0.00    140.85     56.70      2.89
  River           -13205.64    220.00      0.00      0.00  Reservoir
  Lake                 0.00    167.00      0.00    100.00  Reservoir
  1                 -701.41    148.68      7.27      7.87  Tank
  2                 -457.74    141.33     10.76      0.00  Tank
  3                  907.45    159.92     13.40      0.00  Tank
   
   
  Link Results at 23:00:00 hrs:
  ----------------------------------------------
                       Flow  Velocity  Headloss
  Link                  gpm       fps   /1000ft
  ----------------------------------------------
  20                -907.45      0.04      0.00
  40                 701.41      0.03      0.00
  50                 457.74      0.02      0.00
  60               13205.64      9.37      8.99
  101                  0.00      0.00      0.00
  103                122.83      0.20      0.01
  105               -440.05      1.25      0.55
  107                -12.38      0.04      0.00
  109                -99.61      0.16      0.01
  111               -486.05      1.38      0.67
  112                421.75      1.20      0.51
  113               -198.15      0.56      0.13
  114                 85.20      0.54      0.19
  115               -103.63      0.66      0.27
  116               -146.37      0.42      0.07
  117                653.74      1.85      1.15
  119               -697.59      1.98      1.30
  120               1185.55      3.36      3.47
  121               1052.90      2.99      2.79
  122                362.36      2.31      2.79
  123               9384.49      4.26      1.59
  125              11346.64      5.15      2.26
  129               1530.27      1.09      0.19
  131               1251.38      0.89      0.13
  133               -907.45      0.93      0.18
  135                314.44      0.22      0.01
  137                 71.39      0.11      0.00
  145                243.05      1.55      1.33
  147                233.21      1.49      1.23
  149               -370.35      2.36      2.90
  151               -360.00      2.30      2.75
  153                153.59      0.44      0.08
  155                199.73      0.57      0.13
  159               -214.01      0.61      0.15
  161               -259.22      1.65      1.50
  163               -128.97      0.37      0.06
  169                202.74      1.29      0.95
  171                371.53      1.05      0.41
  173               7533.28      3.42      1.06
  175               7446.79      3.38      1.04
  177               7377.78      3.35      1.02
  179               7089.10      3.22      0.95
  180                  4.34      0.01      0.00
  181                  4.34      0.01      0.00
  183               6852.18      3.11      0.89
  185                -24.32      0.16      0.02
  186                279.49      1.78      1.72
  187               6213.30      2.82      0.74
  189               4870.75      2.21      0.47
  191              -1276.86      0.91      0.14
  193              -1668.00      1.18      0.22
  195               -283.59      0.80      0.25
  197               -380.73      1.08      0.42
  199                320.68      0.91      0.31
  201                701.41      1.99      1.31
  202                549.90      3.51      6.03
  203                313.24      2.00      2.13
  204                549.90      1.56      0.84
  205                279.49      0.79      0.24
  207                 -7.44      0.02      0.00
  209                229.07      1.46      1.19
  211                614.56      1.74      1.03
  213                 50.42      0.14      0.01
  215               -105.14      0.30      0.04
  217               -318.83      0.90      0.31
  219               -262.29      0.74      0.21
  221                262.29      1.67      1.53
  223               -131.64      0.37      0.06
  225               -103.18      0.29      0.04
  229               4870.75      3.45      1.40
  231               4528.02      3.21      1.22
  233               4480.00      3.18      1.39
  235                143.47      0.41      0.07
  237                471.20      1.34      0.63
  238                441.86      1.25      0.56
  239                 86.54      0.25      0.03
  240                441.86      1.25      0.56
  241                441.86      1.25      0.56
  243                440.40      0.70      0.14
  245                366.22      0.58      0.10
  247                301.49      0.48      0.07
  249                147.53      0.24      0.02
  251                 69.00      0.14      0.01
  257                 38.08      0.11      0.01
  261                 41.45      0.26      0.05
  263                 27.52      0.08      0.00
  269                 59.70      0.17      0.01
  271                 93.25      0.60      0.23
  273                -59.61      0.17      0.01
  275                -45.77      0.13      0.01
  277                  7.25      0.02      0.00
  281                -53.01      0.22      0.03
  283                -88.34      0.25      0.03
  285                 15.88      0.05      0.00
  287               -186.43      0.76      0.27
  289                457.74      1.87      1.45
  291                 91.05      0.37      0.07
  293                112.81      0.72      0.32
  295                -72.46      0.21      0.02
  297                495.01      3.16      4.97
  299                238.02      1.52      1.28
  301                238.02      1.52      1.28
  303                256.99      1.64      1.48
  305                158.73      0.45      0.08
  307                415.72      1.18      0.50
  309                216.85      1.38      1.08
  311               -322.00      0.91      0.31
  313                507.00      1.44      0.72
  315              -1384.41      0.98      0.16
  317                113.02      0.72      0.32
  319                 30.45      0.09      0.00
  321               7069.03      3.21      0.94
  323                -26.48      0.08      0.00
  325                107.56      0.69      0.29
  329              13205.64      5.99      3.03
  330                  0.00      0.00      0.00
  333                 -0.00      0.00      0.00
  10                   0.00      0.00      0.00  Pump
  335              13205.64      0.00    -93.02  Pump
   
   
  Node Results at 24:00:00 hrs:
  --------------------------------------------------------
                     Demand      Head  Pressure    % from
  Node                  gpm        ft       psi      Lake
  --------------------------------------------------------
  10                   0.00    147.69      0.30    100.00
  15                 620.00    127.99     41.59      0.00
  20                   0.00    160.27     13.55      0.00
  35                1637.00    147.95     58.69      1.34
  40                   0.00    147.69      6.84      7.87
  50                   0.00    139.46      9.95      0.00
  60                   0.00    209.12     90.61      0.00
  601                  0.00    303.19    131.37      0.00
  61                   0.00    303.19    131.37      0.00
  101                254.53    147.69     45.80      0.00
  103                178.49    147.66     45.35      0.02
  105                181.40    149.00     52.21      0.00
  107                 73.22    148.99     55.02      0.00
  109                310.08    147.66     55.19      0.06
  111                190.20    148.28     59.92      0.27
  113                 26.81    148.32     63.40      3.27
  115                 69.81    149.09     58.53      0.00
  117                157.73    152.19     60.05      0.00
  119                236.01    159.69     68.33      0.00
  120                  0.00    157.27     68.14      0.00
  121                 55.78    163.15     71.56      0.00
  123                  0.00    167.56     67.84      0.00
  125                 61.10    162.58     65.68      0.00
  127                 23.66    160.97     45.48      0.00
  129                  0.00    160.96     47.64      0.00
  131                 57.28    160.94     67.13      0.00
  139                  7.89    155.27     53.85      0.00
  141                 13.20    151.24     63.80      0.00
  143                  8.31    140.42     62.79      0.00
  145                 37.02    152.45     65.62      1.87
  147                 11.46    153.37     58.44      0.00
  149                 36.27    153.76     59.69      0.00
  151                193.60    157.59     53.77      0.00
  153                 59.19    157.69     39.64      0.00
  157                 69.40    157.26     62.46      0.00
  159                 55.37    153.91     64.09      0.00
  161                 21.17    151.64     63.97      0.00
  163                 12.62    151.18     63.34      0.00
  164                  0.00    151.18     63.34      7.23
  166                  3.48    151.18     66.37      0.00
  167                 19.51    149.31     66.86      0.00
  169                  0.00    149.31     66.86      0.00
  171                 52.72    148.23     65.96      0.00
  173                  0.00    148.20     65.95      0.00
  177                 77.95    147.94     60.64      7.87
  179                  0.00    147.94     60.64      7.87
  181                  0.00    147.95     60.64      1.34
  183                  0.00    147.94     59.34      7.87
  184                  0.00    146.58     56.58      4.47
  185                 34.37    147.21     56.85      4.47
  187                  0.00    147.94     58.69      0.66
  189                144.61    148.27     62.51      0.00
  191                109.75    148.22     53.39      0.00
  193                 95.56    148.32     56.47      0.00
  195                  0.00    148.39     57.58      0.00
  197                 22.83    148.23     54.26      0.59
  199                159.89    142.64     62.67      0.00
  201                 59.78    141.86     61.43      0.02
  203               4439.00    141.70     60.53      0.02
  204                  0.00    147.69     54.89      0.66
  205                 87.58    142.59     52.68      3.13
  206                  0.00    141.31     60.79      7.58
  207                 92.98    141.72     57.51      7.71
  208                  0.00    140.83     54.09      7.36
  209                  1.17    140.01     61.53      6.22
  211                 11.62    139.73     57.51      5.51
  213                 18.68    139.65     57.48      2.88
  215                123.53    139.46     57.39     51.61
  217                 32.45    139.44     57.82     77.90
  219                 55.37    139.43     58.68     76.44
  225                 30.55    139.43     56.95     76.41
  229                 86.00    139.34     55.83     43.28
  231                 22.08    139.34     58.21     76.80
  237                 20.92    139.37     54.32     68.44
  239                 59.78    139.32     54.73     42.40
  241                  0.00    139.32     54.73      0.01
  243                  5.82    139.32     54.30      0.00
  247                 94.31    139.31     52.56      0.00
  249                  0.00    139.31     52.56     63.71
  251                 32.37    139.31     47.36      0.00
  253                 73.06    139.26     44.74      0.00
  255                 54.12    139.31     48.66      0.00
  257                  0.00    154.15     59.43      0.00
  259                  0.00    153.72     55.77      0.00
  261                  0.00    152.14     65.92      0.00
  263                  0.00    151.98     65.85      0.00
  265                  0.00    149.90     64.95      0.00
  267                  0.00    148.34     55.18      0.26
  269                  0.00    148.66     64.42      0.00
  271                  0.00    148.03     61.54      0.00
  273                  0.00    142.59     58.32      0.00
  275                  0.00    141.86     57.13      0.03
  River           -13087.22    220.00      0.00      0.00  Reservoir
  Lake                 0.00    167.00      0.00    100.00  Reservoir
  1                  262.50    147.69      6.84      7.87  Tank
  2                 -140.04    139.46      9.95      0.00  Tank
  3                 2184.30    160.27     13.55      0.00  Tank
   
   
  Link Results at 24:00:00 hrs:
  ----------------------------------------------
                       Flow  Velocity  Headloss
  Link                  gpm       fps   /1000ft
  ----------------------------------------------
  20               -2184.30      0.09      0.00
  40                -262.50      0.01      0.00
  50                 140.04      0.01      0.00
  60               13087.22      9.28      8.84
  101                  0.00      0.00      0.00
  103                167.59      0.27      0.02
  105               -422.12      1.20      0.51
  107                 31.99      0.09      0.00
  109                -10.90      0.02      0.00
  111               -320.97      0.91      0.31
  112                497.32      1.41      0.70
  113                -82.10      0.23      0.02
  114                123.98      0.79      0.38
  115                -41.23      0.26      0.05
  116                 15.07      0.04      0.00
  117                635.51      1.80      1.09
  119               -732.35      2.08      1.42
  120               1157.64      3.28      3.32
  121               1038.00      2.94      2.72
  122                367.94      2.35      2.87
  123               9812.39      4.45      1.73
  125              13087.22      5.94      2.94
  129               2851.10      2.02      0.60
  131               2573.55      1.83      0.50
  133              -2184.30      2.23      0.89
  135                365.58      0.26      0.01
  137                 57.28      0.09      0.00
  145                308.30      1.97      2.07
  147                300.41      1.92      1.97
  149               -628.31      4.01      7.72
  151               -620.00      3.96      7.54
  153                341.10      0.97      0.35
  155                378.12      1.07      0.42
  159               -389.58      1.11      0.44
  161               -425.86      2.72      3.76
  163               -157.26      0.45      0.08
  169                216.45      1.38      1.07
  171                462.19      1.31      0.61
  173               7956.54      3.61      1.17
  175               7887.14      3.58      1.15
  177               7831.77      3.55      1.14
  179               7559.70      3.43      1.06
  180                  3.48      0.01      0.00
  181                  3.48      0.01      0.00
  183               7336.64      3.33      1.01
  185                -19.51      0.12      0.01
  186                347.44      2.22      2.58
  187               6712.10      3.05      0.85
  189               4855.79      2.20      0.47
  191              -1803.59      1.28      0.26
  193              -1637.00      1.16      0.22
  195                308.73      0.88      0.29
  197                230.78      0.65      0.17
  199                -31.72      0.09      0.00
  201               -262.50      0.74      0.21
  202                565.23      3.61      6.35
  203                252.15      1.61      1.42
  204                565.23      1.60      0.88
  205                347.44      0.99      0.36
  207                283.88      0.81      0.25
  209                165.61      1.06      0.65
  211                605.03      1.72      1.00
  213                181.84      0.52      0.11
  215                131.20      0.37      0.06
  217               -246.17      0.70      0.19
  219               -250.90      0.71      0.20
  221                250.90      1.60      1.41
  223                 45.42      0.13      0.01
  225                 68.25      0.19      0.02
  229               4855.79      3.44      1.39
  231               4553.07      3.23      1.23
  233               4439.00      3.15      1.37
  235                142.83      0.41      0.07
  237                506.39      1.44      0.72
  238                581.79      1.65      0.93
  239                168.38      0.48      0.09
  240                581.79      1.65      0.93
  241                581.79      1.65      0.93
  243                580.62      0.93      0.23
  245                333.18      0.53      0.08
  247                241.91      0.39      0.05
  249                118.38      0.19      0.01
  251                 55.37      0.12      0.01
  257                 30.55      0.09      0.00
  261                 72.59      0.46      0.14
  263                 22.08      0.06      0.00
  269                235.83      0.67      0.17
  271                 35.50      0.23      0.04
  273                179.41      0.51      0.11
  275                 48.42      0.14      0.01
  277                  5.82      0.02      0.00
  281                 42.61      0.17      0.02
  283                 71.21      0.20      0.02
  285                -48.23      0.14      0.01
  287                 -3.47      0.01      0.00
  289                140.04      0.57      0.16
  291                 73.06      0.30      0.05
  293                  9.39      0.06      0.00
  295                 22.98      0.07      0.00
  297                487.59      3.11      4.83
  299                234.26      1.50      1.24
  301                234.26      1.50      1.24
  303                253.33      1.62      1.44
  305                147.92      0.42      0.07
  307                401.25      1.14      0.47
  309                206.95      1.32      0.99
  311                -75.75      0.21      0.02
  313                462.89      1.31      0.61
  315              -1945.73      1.38      0.30
  317                114.09      0.73      0.33
  319                 28.74      0.08      0.00
  321               7543.59      3.42      1.06
  323                 54.29      0.15      0.01
  325                142.14      0.91      0.49
  329              13087.22      5.94      2.98
  330                  0.00      0.00      0.00
  333                 -0.00      0.00      0.00
  10                   0.00      0.00      0.00  Pump
  335              13087.22      0.00    -94.07  Pump
   
  Analysis ended Fri Oct 13 13:50:30 2017
