  Page 1                                    Fri Mar 23 14:48:38 2018

  ******************************************************************
  *                           E P A N E T                          *
  *                   Hydraulic and Water Quality                  *
  *                   Analysis for Pipe Networks                   *
  *                         Version 2.00.12                        *
  ******************************************************************
  
  Analysis begun Fri Mar 23 14:48:38 2018

   
  Hydraulic Status:
  -----------------------------------------------------------------------
     0:00:00: Balancing the network:
              Trial  1: relative flow change = 1.115389
              Trial  2: relative flow change = 1.173709
              Trial  3: relative flow change = 1.173711
              Trial  4: relative flow change = 1.173708
              Trial  5: relative flow change = 1.173715
              Trial  6: relative flow change = 1.173713
              Trial  7: relative flow change = 1.173725
              Trial  8: relative flow change = 1.173760
              Trial  9: relative flow change = 1.173731
              Trial 10: relative flow change = 1.173601
              Trial 11: relative flow change = 1.173730
              Trial 12: relative flow change = 0.000669
     0:00:00: Balanced after 12 trials
     0:00:00: Reservoir R1 is closed
     0:00:00: Reservoir R2 is closed
   
  Analysis ended Fri Mar 23 14:48:38 2018
