  Page 1                                    Fri Mar 23 14:48:39 2018

  ******************************************************************
  *                           E P A N E T                          *
  *                   Hydraulic and Water Quality                  *
  *                   Analysis for Pipe Networks                   *
  *                         Version 2.00.12                        *
  ******************************************************************
  
  Analysis begun Fri Mar 23 14:48:39 2018

   
  Hydraulic Status:
  -----------------------------------------------------------------------
     0:00:00: Balancing the network:
              Trial  1: relative flow change = 0.985507
              Trial  2: relative flow change = 0.391213
              Pipe 142 switched from open to closed
              Pipe 143 switched from open to closed
              Trial  3: relative flow change = 0.505790
              Trial  4: relative flow change = 0.035713
              Trial  5: relative flow change = 0.006044
              Trial  6: relative flow change = 0.001067
              Trial  7: relative flow change = 0.000099
     0:00:00: Balanced after 7 trials
     0:00:00: Reservoir 40 is emptying
     0:00:00: Tank 41 is closed at 10.00 ft
     0:00:00: Tank 42 is closed at 10.00 ft
     0:00:00: Pipe 142 temporarily closed
     0:00:00: Pipe 143 temporarily closed
   
  WARNING: Negative pressures at 0:00:00 hrs.
  
  Analysis ended Fri Mar 23 14:48:39 2018
